D2_05
  DSViewer          3D                             0

 46 47  0  0  0  0  0  0  0  0999 V2000
    6.0879    2.2158    2.0967 C   0  0
    6.2112    1.1625    1.0438 C   0  0
    5.0476    0.4103    0.6296 C   0  0
    5.1910   -0.5694   -0.3431 C   0  0
    4.1563   -1.3159   -0.7947 C   0  0
    2.8546   -1.1320   -0.2909 C   0  0
    1.8126   -2.0051   -0.8484 C   0  0
    0.5026   -1.5195   -0.6858 N   0  0
   -0.2876   -1.6256    0.5090 C   0  0
   -1.6285   -1.0608    0.4031 C   0  0
   -1.8455    0.0469   -0.3663 C   0  0
   -3.0884    0.5880   -0.5886 C   0  0
   -4.1845   -0.0329    0.0092 C   0  0
   -5.5292    0.5350   -0.2648 C   0  0
   -6.3804    0.5055    0.9766 C   0  0
   -6.1865   -0.2265   -1.4088 C   0  0
   -5.4337    1.9706   -0.7431 C   0  0
   -3.9792   -1.1501    0.7918 C   0  0
   -2.7114   -1.6710    0.9954 C   0  0
    0.1814   -2.1717    1.5223 O   0  0
    2.7114   -0.1681    0.6657 C   0  0
    3.7941    0.5970    1.1241 C   0  0
    7.3402    0.9619    0.5518 O   0  0
    7.0929    2.4117    2.5558 H   0  0
    5.7208    3.1703    1.6821 H   0  0
    5.4438    1.8024    2.8850 H   0  0
    6.2021   -0.7166   -0.7407 H   0  0
    4.3084   -2.0762   -1.5608 H   0  0
    1.9559   -3.0025   -0.3284 H   0  0
    2.0378   -2.1388   -1.9359 H   0  0
    0.0540   -1.0331   -1.5162 H   0  0
   -0.9833    0.5471   -0.8333 H   0  0
   -3.2293    1.4836   -1.2108 H   0  0
   -7.3252   -0.0282    0.7148 H   0  0
   -6.5955    1.5568    1.3337 H   0  0
   -5.9434   -0.0350    1.8157 H   0  0
   -5.4701   -0.1740   -2.2621 H   0  0
   -6.2811   -1.2863   -1.1403 H   0  0
   -7.1292    0.2726   -1.6841 H   0  0
   -5.1914    2.0116   -1.8445 H   0  0
   -4.6779    2.5378   -0.1638 H   0  0
   -6.4529    2.4323   -0.6863 H   0  0
   -4.8454   -1.6336    1.2614 H   0  0
   -2.5726   -2.5407    1.6117 H   0  0
    1.7223   -0.0095    1.0610 H   0  0
    3.5996    1.3300    1.8723 H   0  0
  1  2  1  0  0  0
  2 23  2  0  0  0
  2  3  1  0  0  0
  3  4  2  0  0  0
  4  5  1  0  0  0
  5  6  2  0  0  0
  6 21  1  0  0  0
  6  7  1  0  0  0
  7  8  1  0  0  0
  8  9  1  0  0  0
  9 20  2  0  0  0
  9 10  1  0  0  0
 10 11  2  0  0  0
 11 12  1  0  0  0
 12 13  2  0  0  0
 13 18  1  0  0  0
 13 14  1  0  0  0
 14 17  1  0  0  0
 14 16  1  0  0  0
 14 15  1  0  0  0
 18 19  2  0  0  0
 19 10  1  0  0  0
 21 22  2  0  0  0
 22  3  1  0  0  0
  1 24  1  0  0  0
  1 25  1  0  0  0
  1 26  1  0  0  0
  4 27  1  0  0  0
  5 28  1  0  0  0
  7 29  1  0  0  0
  7 30  1  0  0  0
  8 31  1  0  0  0
 11 32  1  0  0  0
 12 33  1  0  0  0
 15 34  1  0  0  0
 15 35  1  0  0  0
 15 36  1  0  0  0
 16 37  1  0  0  0
 16 38  1  0  0  0
 16 39  1  0  0  0
 17 40  1  0  0  0
 17 41  1  0  0  0
 17 42  1  0  0  0
 18 43  1  0  0  0
 19 44  1  0  0  0
 21 45  1  0  0  0
 22 46  1  0  0  0
M  END
> <pIC50>
6.804

$$$$
D2_18
  DSViewer          3D                             0

 48 49  0  0  0  0  0  0  0  0999 V2000
    8.6293    2.0383    1.0369 C   0  0
    7.6174    1.0954    0.4453 C   0  0
    6.2964    1.1548    0.9480 N   0  0
    5.2261    0.3766    0.5126 C   0  0
    5.2391   -0.3863   -0.6164 C   0  0
    4.1483   -1.1371   -0.9753 C   0  0
    2.9522   -1.1737   -0.2160 C   0  0
    1.8331   -1.9877   -0.6453 C   0  0
    0.5161   -1.5206   -0.5766 N   0  0
   -0.3343   -1.5791    0.5775 C   0  0
   -1.7164   -1.0407    0.4352 C   0  0
   -1.9097    0.2670    0.0536 C   0  0
   -3.1808    0.7617   -0.1612 C   0  0
   -4.3104   -0.0195   -0.0095 C   0  0
   -5.6655    0.5272   -0.3329 C   0  0
   -6.2822   -0.4060   -1.4078 C   0  0
   -5.5477    1.8670   -1.0371 C   0  0
   -6.5658    0.6802    0.8425 C   0  0
   -4.1250   -1.3274    0.3761 C   0  0
   -2.8342   -1.8243    0.5944 C   0  0
    0.0279   -2.0584    1.6713 O   0  0
    2.9676   -0.4035    0.9052 C   0  0
    4.0633    0.3651    1.2875 C   0  0
    7.9708    0.3131   -0.4485 O   0  0
    8.3361    2.2888    2.0740 H   0  0
    9.6283    1.5464    1.0368 H   0  0
    8.6753    2.9474    0.4083 H   0  0
    6.1370    1.8697    1.7198 H   0  0
    6.1020   -0.4311   -1.2948 H   0  0
    4.1354   -1.7536   -1.8720 H   0  0
    2.0525   -2.2852   -1.7369 H   0  0
    1.9184   -3.0104   -0.1400 H   0  0
    0.0275   -1.0601   -1.4259 H   0  0
   -1.0368    0.8927   -0.0751 H   0  0
   -3.3499    1.8048   -0.4610 H   0  0
   -5.4073   -0.6956   -2.0520 H   0  0
   -7.0665    0.1368   -1.9544 H   0  0
   -6.5926   -1.3096   -0.8946 H   0  0
   -6.5144    2.0336   -1.5660 H   0  0
   -5.2419    2.6852   -0.3732 H   0  0
   -4.7918    1.7249   -1.8593 H   0  0
   -6.5713   -0.1980    1.5118 H   0  0
   -7.5930    0.8568    0.4273 H   0  0
   -6.2874    1.6160    1.3627 H   0  0
   -4.9892   -1.9874    0.5172 H   0  0
   -2.7029   -2.8597    0.8907 H   0  0
    2.1078   -0.3476    1.5588 H   0  0
    4.0093    0.9531    2.1984 H   0  0
  1  2  1  0  0  0
  2 24  2  0  0  0
  2  3  1  0  0  0
  3  4  1  0  0  0
  4  5  2  0  0  0
  5  6  1  0  0  0
  6  7  2  0  0  0
  7 22  1  0  0  0
  7  8  1  0  0  0
  8  9  1  0  0  0
  9 10  1  0  0  0
 10 21  2  0  0  0
 10 11  1  0  0  0
 11 12  2  0  0  0
 12 13  1  0  0  0
 13 14  2  0  0  0
 14 19  1  0  0  0
 14 15  1  0  0  0
 15 18  1  0  0  0
 15 17  1  0  0  0
 15 16  1  0  0  0
 19 20  2  0  0  0
 20 11  1  0  0  0
 22 23  2  0  0  0
 23  4  1  0  0  0
  1 25  1  0  0  0
  1 26  1  0  0  0
  1 27  1  0  0  0
  3 28  1  0  0  0
  5 29  1  0  0  0
  6 30  1  0  0  0
  8 31  1  0  0  0
  8 32  1  0  0  0
  9 33  1  0  0  0
 12 34  1  0  0  0
 13 35  1  0  0  0
 16 36  1  0  0  0
 16 37  1  0  0  0
 16 38  1  0  0  0
 17 39  1  0  0  0
 17 40  1  0  0  0
 17 41  1  0  0  0
 18 42  1  0  0  0
 18 43  1  0  0  0
 18 44  1  0  0  0
 19 45  1  0  0  0
 20 46  1  0  0  0
 22 47  1  0  0  0
 23 48  1  0  0  0
M  END
> <pIC50>
5.951

$$$$
D2_32
  DSViewer          3D                             0

 51 52  0  0  0  0  0  0  0  0999 V2000
    9.3275   -0.5017    3.5691 C   0  0
    8.5868    0.1161    2.4533 C   0  0
    7.2592    0.6039    2.5947 N   0  0
    6.4813    1.3135    1.2270 S   0  0
    5.1170    0.3195    0.7357 C   0  0
    3.8303    0.5716    1.1382 C   0  0
    2.7647   -0.2385    0.7273 C   0  0
    2.9502   -1.3187   -0.0921 C   0  0
    1.9013   -2.2222   -0.6025 C   0  0
    0.5895   -1.6525   -0.6724 N   0  0
   -0.3401   -1.5302    0.3850 C   0  0
   -1.6489   -0.9375    0.2383 C   0  0
   -1.8765    0.3585   -0.1383 C   0  0
   -3.1592    0.8711   -0.2879 C   0  0
   -4.2630    0.0973   -0.0642 C   0  0
   -5.6678    0.5588   -0.2176 C   0  0
   -6.3728    0.3461    1.1045 C   0  0
   -6.4142   -0.2261   -1.2903 C   0  0
   -5.7096    1.9969   -0.6278 C   0  0
   -4.0465   -1.2298    0.3229 C   0  0
   -2.7711   -1.7302    0.4696 C   0  0
   -0.0178   -1.9613    1.5176 O   0  0
    4.2696   -1.5721   -0.5006 C   0  0
    5.3124   -0.7730   -0.0955 C   0  0
    5.9885    2.6912    1.4828 O   0  0
    7.4585    1.3266    0.0788 O   0  0
    9.1592    0.2125    1.3337 O   0  0
    9.8888   -1.3636    3.1381 H   0  0
   10.0747    0.2235    4.0013 H   0  0
    8.7029   -0.8300    4.4108 H   0  0
    6.8039    0.5125    3.5242 H   0  0
    3.6266    1.4061    1.7856 H   0  0
    1.7519   -0.0114    1.0540 H   0  0
    2.2329   -2.5745   -1.6240 H   0  0
    1.8555   -3.1648    0.0039 H   0  0
    0.2388   -1.2697   -1.6067 H   0  0
   -0.9987    0.9926   -0.3172 H   0  0
   -3.2930    1.9088   -0.5860 H   0  0
   -6.5074    1.3358    1.5699 H   0  0
   -5.7454   -0.2687    1.7814 H   0  0
   -7.3337   -0.1999    0.9876 H   0  0
   -6.5524   -1.2781   -1.0432 H   0  0
   -5.9742   -0.0756   -2.2742 H   0  0
   -7.4393    0.2521   -1.3092 H   0  0
   -6.7689    2.2666   -0.9274 H   0  0
   -5.0831    2.1750   -1.5108 H   0  0
   -5.4196    2.7096    0.1739 H   0  0
   -4.9309   -1.8357    0.4984 H   0  0
   -2.6234   -2.7559    0.7707 H   0  0
    4.4275   -2.4345   -1.1615 H   0  0
    6.3389   -0.9823   -0.4237 H   0  0
  1  2  1  0  0  0
  2 27  2  0  0  0
  2  3  1  0  0  0
  3  4  1  0  0  0
  4 26  2  0  0  0
  4 25  2  0  0  0
  4  5  1  0  0  0
  5  6  2  0  0  0
  6  7  1  0  0  0
  7  8  2  0  0  0
  8 23  1  0  0  0
  8  9  1  0  0  0
  9 10  1  0  0  0
 10 11  1  0  0  0
 11 22  2  0  0  0
 11 12  1  0  0  0
 12 13  2  0  0  0
 13 14  1  0  0  0
 14 15  2  0  0  0
 15 20  1  0  0  0
 15 16  1  0  0  0
 16 19  1  0  0  0
 16 18  1  0  0  0
 16 17  1  0  0  0
 20 21  2  0  0  0
 21 12  1  0  0  0
 23 24  2  0  0  0
 24  5  1  0  0  0
  1 28  1  0  0  0
  1 29  1  0  0  0
  1 30  1  0  0  0
  3 31  1  0  0  0
  6 32  1  0  0  0
  7 33  1  0  0  0
  9 34  1  0  0  0
  9 35  1  0  0  0
 10 36  1  0  0  0
 13 37  1  0  0  0
 14 38  1  0  0  0
 17 39  1  0  0  0
 17 40  1  0  0  0
 17 41  1  0  0  0
 18 42  1  0  0  0
 18 43  1  0  0  0
 18 44  1  0  0  0
 19 45  1  0  0  0
 19 46  1  0  0  0
 19 47  1  0  0  0
 20 48  1  0  0  0
 21 49  1  0  0  0
 23 50  1  0  0  0
 24 51  1  0  0  0
M  END
> <pIC50>
4.896

$$$$
D2_16
  DSViewer          3D                             0

 46 47  0  0  0  0  0  0  0  0999 V2000
    4.4729   -3.0186   -0.9032 C   0  0
    4.2392   -1.6445   -0.3918 C   0  0
    2.9506   -1.1103   -0.3041 C   0  0
    1.8678   -1.9481   -0.7854 C   0  0
    0.5441   -1.4810   -0.7421 N   0  0
   -0.2462   -1.1681    0.4005 C   0  0
   -1.6198   -0.6945    0.2782 C   0  0
   -1.9967    0.5701   -0.0796 C   0  0
   -3.3364    0.8935   -0.2111 C   0  0
   -4.3211   -0.0647    0.0180 C   0  0
   -5.7783    0.2232   -0.1476 C   0  0
   -6.0645    1.6056   -0.6367 C   0  0
   -6.4503    0.0278    1.1902 C   0  0
   -6.3778   -0.7973   -1.1265 C   0  0
   -3.9545   -1.3426    0.3823 C   0  0
   -2.6192   -1.6366    0.5053 C   0  0
    0.2618   -1.3120    1.5212 O   0  0
    2.7814    0.1517    0.1843 C   0  0
    3.8916    0.9108    0.5948 C   0  0
    5.1673    0.3983    0.5131 C   0  0
    6.3495    1.1335    0.9106 C   0  0
    7.6282    0.6340    0.8176 O   0  5
    6.1942    2.2999    1.3674 O   0  0
    5.3166   -0.8705    0.0205 C   0  0
    5.5294   -3.2785   -0.8348 H   0  0
    4.0259   -3.0930   -1.9148 H   0  0
    3.8810   -3.7624   -0.2924 H   0  0
    2.1064   -2.1900   -1.8754 H   0  0
    2.0082   -2.9527   -0.2973 H   0  0
    0.0129   -1.3280   -1.6601 H   0  0
   -1.1975    1.2827   -0.2425 H   0  0
   -3.6119    1.8848   -0.4847 H   0  0
   -6.1675    2.2778    0.2250 H   0  0
   -5.3714    1.9446   -1.4174 H   0  0
   -7.0769    1.5761   -1.1367 H   0  0
   -6.3785    0.9358    1.8310 H   0  0
   -6.0790   -0.8229    1.7657 H   0  0
   -7.5470   -0.1980    1.0093 H   0  0
   -5.7632   -1.7074   -1.1908 H   0  0
   -7.3786   -1.0639   -0.7501 H   0  0
   -6.5309   -0.3281   -2.1352 H   0  0
   -4.7526   -2.0562    0.5485 H   0  0
   -2.3756   -2.6505    0.7905 H   0  0
    1.8239    0.6391    0.2851 H   0  0
    3.7832    1.9191    0.9825 H   0  0
    6.2965   -1.3211   -0.0708 H   0  0
  1  2  1  0  0  0
  2  3  2  0  0  0
  3 18  1  0  0  0
  3  4  1  0  0  0
  4  5  1  0  0  0
  5  6  1  0  0  0
  6 17  2  0  0  0
  6  7  1  0  0  0
  7  8  2  0  0  0
  8  9  1  0  0  0
  9 10  2  0  0  0
 10 15  1  0  0  0
 10 11  1  0  0  0
 11 14  1  0  0  0
 11 13  1  0  0  0
 11 12  1  0  0  0
 15 16  2  0  0  0
 16  7  1  0  0  0
 18 19  2  0  0  0
 19 20  1  0  0  0
 20 24  2  0  0  0
 20 21  1  0  0  0
 21 23  2  0  0  0
 21 22  1  0  0  0
 24  2  1  0  0  0
  1 25  1  0  0  0
  1 26  1  0  0  0
  1 27  1  0  0  0
  4 28  1  0  0  0
  4 29  1  0  0  0
  5 30  1  0  0  0
  8 31  1  0  0  0
  9 32  1  0  0  0
 12 33  1  0  0  0
 12 34  1  0  0  0
 12 35  1  0  0  0
 13 36  1  0  0  0
 13 37  1  0  0  0
 13 38  1  0  0  0
 14 39  1  0  0  0
 14 40  1  0  0  0
 14 41  1  0  0  0
 15 42  1  0  0  0
 16 43  1  0  0  0
 18 44  1  0  0  0
 19 45  1  0  0  0
 24 46  1  0  0  0
M  CHG  1  22  -1
M  END
> <pIC50>
6.167

$$$$
D2_13
  DSViewer          3D                             0

 48 49  0  0  0  0  0  0  0  0999 V2000
    8.1846    0.4347   -0.5182 C   0  0
    7.4443    1.4753    0.2883 C   0  0
    6.4272    0.9314    1.0655 O   0  0
    5.2979    0.2435    0.6195 C   0  0
    5.0127    0.0209   -0.6999 C   0  0
    3.8914   -0.6729   -1.1032 C   0  0
    2.9891   -1.1827   -0.1518 C   0  0
    1.8660   -1.9726   -0.5915 C   0  0
    0.5464   -1.4672   -0.5973 N   0  0
   -0.3480   -1.3948    0.4780 C   0  0
   -1.6953   -0.8596    0.2590 C   0  0
   -1.9801    0.1599   -0.6024 C   0  0
   -3.2909    0.5550   -0.7744 C   0  0
   -4.3625   -0.0058   -0.1324 C   0  0
   -5.7694    0.3935   -0.3221 C   0  0
   -5.8804    1.6331   -1.1821 C   0  0
   -6.5482   -0.7017   -1.0516 C   0  0
   -6.4631    0.7263    1.0013 C   0  0
   -4.0681   -1.0413    0.7432 C   0  0
   -2.7749   -1.4555    0.9339 C   0  0
   -0.0198   -1.7844    1.6111 O   0  0
    3.2844   -0.9503    1.1543 C   0  0
    4.4004   -0.2586    1.5641 C   0  0
    8.2759    0.7442   -1.5786 H   0  0
    7.5958   -0.5172   -0.4400 H   0  0
    9.2219    0.2596   -0.1137 H   0  0
    8.1394    2.0153    0.9807 H   0  0
    6.9917    2.1799   -0.4392 H   0  0
    5.7182    0.4286   -1.4480 H   0  0
    3.6681   -0.8476   -2.1268 H   0  0
    2.0456   -2.3854   -1.6471 H   0  0
    1.8119   -2.9649   -0.0109 H   0  0
    0.1765   -1.0875   -1.5208 H   0  0
   -1.1659    0.6503   -1.1398 H   0  0
   -3.4841    1.3648   -1.4605 H   0  0
   -5.5260    2.5355   -0.6783 H   0  0
   -6.9896    1.7430   -1.3791 H   0  0
   -5.4406    1.4089   -2.1537 H   0  0
   -6.8997   -0.3743   -2.0477 H   0  0
   -5.8810   -1.5775   -1.1746 H   0  0
   -7.4518   -0.9656   -0.4606 H   0  0
   -7.1883    1.5561    0.8479 H   0  0
   -7.0431   -0.2003    1.2927 H   0  0
   -5.7617    1.0550    1.7772 H   0  0
   -4.8744   -1.5135    1.2700 H   0  0
   -2.5530   -2.2703    1.6249 H   0  0
    2.5895   -1.3395    1.9340 H   0  0
    4.6162   -0.0830    2.5987 H   0  0
  1  2  1  0  0  0
  2  3  1  0  0  0
  3  4  1  0  0  0
  4  5  2  0  0  0
  5  6  1  0  0  0
  6  7  2  0  0  0
  7 22  1  0  0  0
  7  8  1  0  0  0
  8  9  1  0  0  0
  9 10  1  0  0  0
 10 21  2  0  0  0
 10 11  1  0  0  0
 11 12  2  0  0  0
 12 13  1  0  0  0
 13 14  2  0  0  0
 14 19  1  0  0  0
 14 15  1  0  0  0
 15 18  1  0  0  0
 15 17  1  0  0  0
 15 16  1  0  0  0
 19 20  2  0  0  0
 20 11  1  0  0  0
 22 23  2  0  0  0
 23  4  1  0  0  0
  1 24  1  0  0  0
  1 25  1  0  0  0
  1 26  1  0  0  0
  2 27  1  0  0  0
  2 28  1  0  0  0
  5 29  1  0  0  0
  6 30  1  0  0  0
  8 31  1  0  0  0
  8 32  1  0  0  0
  9 33  1  0  0  0
 12 34  1  0  0  0
 13 35  1  0  0  0
 16 36  1  0  0  0
 16 37  1  0  0  0
 16 38  1  0  0  0
 17 39  1  0  0  0
 17 40  1  0  0  0
 17 41  1  0  0  0
 18 42  1  0  0  0
 18 43  1  0  0  0
 18 44  1  0  0  0
 19 45  1  0  0  0
 20 46  1  0  0  0
 22 47  1  0  0  0
 23 48  1  0  0  0
M  END
> <pIC50>
6.244

$$$$
D2_06
  DSViewer          3D                             0

 43 44  0  0  0  0  0  0  0  0999 V2000
    4.2905   -3.1947   -1.3017 Cl  0  0
    4.2292   -1.6114   -0.4811 C   0  0
    2.9356   -1.0710   -0.2713 C   0  0
    1.8176   -1.8908   -0.7077 C   0  0
    0.4998   -1.4746   -0.5959 N   0  0
   -0.2746   -1.1366    0.5427 C   0  0
   -1.6837   -0.7432    0.3823 C   0  0
   -2.6478   -1.7110    0.0912 C   0  0
   -3.9762   -1.3735   -0.0992 C   0  0
   -4.4226   -0.0650   -0.0106 C   0  0
   -5.8763    0.2405   -0.2780 C   0  0
   -6.7541   -0.2083    0.8432 C   0  0
   -6.0782    1.6915   -0.6056 C   0  0
   -6.3076   -0.5199   -1.5491 C   0  0
   -3.4817    0.8925    0.2773 C   0  0
   -2.1385    0.5421    0.4681 C   0  0
    0.2664   -1.1891    1.6533 O   0  0
    2.9004    0.1475    0.3537 C   0  0
    4.0829    0.7934    0.7503 C   0  0
    5.3223    0.2571    0.5412 C   0  0
    6.5755    0.9002    0.9329 C   0  0
    6.6244    2.1128    1.5999 O   0  5
    7.6572    0.3300    0.6522 O   0  0
    5.3721   -0.9876   -0.0971 C   0  0
    1.8920   -2.8667   -0.0754 H   0  0
    2.0400   -2.3592   -1.7303 H   0  0
   -0.0698   -1.3811   -1.5135 H   0  0
   -2.3112   -2.7212    0.0129 H   0  0
   -4.7322   -2.1322   -0.3320 H   0  0
   -7.2998   -1.1720    0.6192 H   0  0
   -6.2381   -0.3663    1.8084 H   0  0
   -7.5682    0.5286    1.0092 H   0  0
   -6.2441    2.3299    0.2835 H   0  0
   -6.9176    1.7790   -1.3498 H   0  0
   -5.1223    2.0533   -1.0832 H   0  0
   -6.4733   -1.5868   -1.3382 H   0  0
   -7.1575    0.0288   -1.9649 H   0  0
   -5.3962   -0.4770   -2.2020 H   0  0
   -3.7887    1.9193    0.3730 H   0  0
   -1.4300    1.3387    0.7052 H   0  0
    1.9417    0.6104    0.5324 H   0  0
    4.0274    1.7646    1.2526 H   0  0
    6.3477   -1.4269   -0.2849 H   0  0
  1  2  1  0  0  0
  2  3  2  0  0  0
  3 18  1  0  0  0
  3  4  1  0  0  0
  4  5  1  0  0  0
  5  6  1  0  0  0
  6 17  2  0  0  0
  6  7  1  0  0  0
  7  8  2  0  0  0
  8  9  1  0  0  0
  9 10  2  0  0  0
 10 15  1  0  0  0
 10 11  1  0  0  0
 11 14  1  0  0  0
 11 13  1  0  0  0
 11 12  1  0  0  0
 15 16  2  0  0  0
 16  7  1  0  0  0
 18 19  2  0  0  0
 19 20  1  0  0  0
 20 24  2  0  0  0
 20 21  1  0  0  0
 21 23  2  0  0  0
 21 22  1  0  0  0
 24  2  1  0  0  0
  4 25  1  0  0  0
  4 26  1  0  0  0
  5 27  1  0  0  0
  8 28  1  0  0  0
  9 29  1  0  0  0
 12 30  1  0  0  0
 12 31  1  0  0  0
 12 32  1  0  0  0
 13 33  1  0  0  0
 13 34  1  0  0  0
 13 35  1  0  0  0
 14 36  1  0  0  0
 14 37  1  0  0  0
 14 38  1  0  0  0
 15 39  1  0  0  0
 16 40  1  0  0  0
 18 41  1  0  0  0
 19 42  1  0  0  0
 24 43  1  0  0  0
M  CHG  1  22  -1
M  END
> <pIC50>
6.77

$$$$
D2_02
  DSViewer          3D                             0

 48 49  0  0  0  0  0  0  0  0999 V2000
    4.1096   -2.5202   -2.0652 Cl  0  0
    4.1184   -1.3083   -0.8269 C   0  0
    2.8471   -0.8739   -0.3347 C   0  0
    1.6903   -1.5670   -0.9025 C   0  0
    0.3804   -1.2746   -0.6096 N   0  0
   -0.3455   -1.2586    0.6049 C   0  0
   -1.7982   -0.9689    0.5420 C   0  0
   -2.2362    0.1672   -0.0894 C   0  0
   -3.5987    0.3783   -0.3359 C   0  0
   -4.5017   -0.5736    0.0677 C   0  0
   -5.9402   -0.3672   -0.2671 C   0  0
   -6.7309   -1.6811   -0.1511 C   0  0
   -6.6068    0.6828    0.5613 C   0  0
   -6.0443    0.0302   -1.7440 C   0  0
   -4.0821   -1.7122    0.7063 C   0  0
   -2.7265   -1.9175    0.9494 C   0  0
    0.2609   -1.4964    1.6475 O   0  0
    2.8876    0.0915    0.6193 C   0  0
    4.1086    0.6280    1.0988 C   0  0
    5.3266    0.2186    0.6387 C   0  0
    6.5862    0.6990    1.1173 N   0  0
    7.6695    0.9495    0.2304 C   0  0
    9.0232    1.3955    0.5391 C   0  0
    9.6891    1.6287   -0.6627 F   0  0
    9.8074    0.4026    1.1644 F   0  0
    9.1254    2.5351    1.2998 F   0  0
    7.3833    0.7338   -1.0234 O   0  0
    5.2865   -0.7814   -0.3525 C   0  0
    1.8942   -2.7300   -0.6544 H   0  0
    1.8161   -1.6480   -2.0412 H   0  0
   -0.2861   -0.9987   -1.4590 H   0  0
   -1.5656    0.9331   -0.4488 H   0  0
   -3.9634    1.2644   -0.8234 H   0  0
   -7.6191   -1.5641   -0.7973 H   0  0
   -6.9598   -1.8736    0.9001 H   0  0
   -6.1179   -2.4830   -0.5950 H   0  0
   -6.3397    1.6911    0.1907 H   0  0
   -7.7023    0.5529    0.4489 H   0  0
   -6.3898    0.5547    1.6569 H   0  0
   -5.3588   -0.6426   -2.3411 H   0  0
   -5.7571    1.0928   -1.8830 H   0  0
   -7.0731   -0.1473   -2.0626 H   0  0
   -4.8399   -2.4585    1.0169 H   0  0
   -2.3937   -2.7928    1.4477 H   0  0
    1.9532    0.4723    1.0437 H   0  0
    4.0945    1.4028    1.8764 H   0  0
    6.7637    0.8757    2.1272 H   0  0
    6.2619   -1.1262   -0.7013 H   0  0
  1  2  1  0  0  0
  2  3  2  0  0  0
  3 18  1  0  0  0
  3  4  1  0  0  0
  4  5  1  0  0  0
  5  6  1  0  0  0
  6 17  2  0  0  0
  6  7  1  0  0  0
  7  8  2  0  0  0
  8  9  1  0  0  0
  9 10  2  0  0  0
 10 15  1  0  0  0
 10 11  1  0  0  0
 11 14  1  0  0  0
 11 13  1  0  0  0
 11 12  1  0  0  0
 15 16  2  0  0  0
 16  7  1  0  0  0
 18 19  2  0  0  0
 19 20  1  0  0  0
 20 28  2  0  0  0
 20 21  1  0  0  0
 21 22  1  0  0  0
 22 27  2  0  0  0
 22 23  1  0  0  0
 23 26  1  0  0  0
 23 25  1  0  0  0
 23 24  1  0  0  0
 28  2  1  0  0  0
  4 29  1  0  0  0
  4 30  1  0  0  0
  5 31  1  0  0  0
  8 32  1  0  0  0
  9 33  1  0  0  0
 12 34  1  0  0  0
 12 35  1  0  0  0
 12 36  1  0  0  0
 13 37  1  0  0  0
 13 38  1  0  0  0
 13 39  1  0  0  0
 14 40  1  0  0  0
 14 41  1  0  0  0
 14 42  1  0  0  0
 15 43  1  0  0  0
 16 44  1  0  0  0
 18 45  1  0  0  0
 19 46  1  0  0  0
 21 47  1  0  0  0
 28 48  1  0  0  0
M  END
> <pIC50>
8.051

$$$$
D1_03
  DSViewer          3D                             0

 55 56  0  0  0  0  0  0  0  0999 V2000
    4.3474   -3.0060   -1.6009 Cl  0  0
    4.2183   -1.5590   -0.5812 C   0  0
    2.8966   -1.1039   -0.3418 C   0  0
    1.8004   -1.8708   -0.9357 C   0  0
    0.4821   -1.4375   -0.7417 N   0  0
   -0.2582   -1.3118    0.4655 C   0  0
   -1.6648   -0.8821    0.3677 C   0  0
   -2.1011    0.1878   -0.3207 C   0  0
   -3.4906    0.4104   -0.4180 C   0  0
   -4.4066   -0.4319    0.1671 C   0  0
   -5.8546   -0.1697    0.0085 C   0  0
   -6.3858    0.9539    0.8332 C   0  0
   -6.1574    0.0924   -1.4614 C   0  0
   -6.6642   -1.4254    0.3615 C   0  0
   -3.9417   -1.5254    0.8761 C   0  0
   -2.5994   -1.7283    0.9627 C   0  0
    0.2789   -1.5766    1.5386 O   0  0
    2.7704    0.0041    0.4284 C   0  0
    3.9138    0.6493    0.9493 C   0  0
    5.1650    0.1792    0.6970 C   0  0
    6.3256    0.8216    1.1702 N   0  0
    7.4285    1.7242    0.2706 S   0  0
    8.2577    0.9281   -1.0390 C   0  0
    9.0066   -0.3147   -0.6882 C   0  0
    7.3952    0.7923   -2.2971 C   0  0
    6.7688    2.9817   -0.2812 O   0  0
    8.5128    2.2591    1.2113 O   0  0
    5.3160   -0.9437   -0.0840 C   0  0
    2.0309   -1.8723   -2.0637 H   0  0
    1.9043   -2.9829   -0.6650 H   0  0
   -0.0648   -1.1371   -1.6362 H   0  0
   -1.4405    0.8847   -0.8083 H   0  0
   -3.8543    1.2579   -0.9526 H   0  0
   -5.8246    1.0338    1.7687 H   0  0
   -7.4834    0.7729    1.0469 H   0  0
   -6.3719    1.9325    0.2754 H   0  0
   -5.4646   -0.4113   -2.1293 H   0  0
   -7.2232   -0.1976   -1.6891 H   0  0
   -6.0614    1.1857   -1.6135 H   0  0
   -6.7853   -1.5207    1.4431 H   0  0
   -7.6688   -1.2855   -0.0737 H   0  0
   -6.2549   -2.3264   -0.1440 H   0  0
   -4.7059   -2.1562    1.3164 H   0  0
   -2.2073   -2.5930    1.5250 H   0  0
    1.7870    0.3983    0.6441 H   0  0
    3.7051    1.5273    1.5483 H   0  0
    6.5074    0.7119    2.2037 H   0  0
    9.0400    1.6884   -1.3979 H   0  0
    9.0332   -0.4177    0.4146 H   0  0
   10.1025   -0.2342   -0.9863 H   0  0
    8.6261   -1.2147   -1.2109 H   0  0
    6.6986   -0.0168   -2.2997 H   0  0
    8.1268    0.6050   -3.1306 H   0  0
    6.9901    1.8122   -2.4698 H   0  0
    6.3080   -1.3495   -0.3094 H   0  0
  1  2  1  0  0  0
  2  3  2  0  0  0
  3 18  1  0  0  0
  3  4  1  0  0  0
  4  5  1  0  0  0
  5  6  1  0  0  0
  6 17  2  0  0  0
  6  7  1  0  0  0
  7  8  2  0  0  0
  8  9  1  0  0  0
  9 10  2  0  0  0
 10 15  1  0  0  0
 10 11  1  0  0  0
 11 14  1  0  0  0
 11 13  1  0  0  0
 11 12  1  0  0  0
 15 16  2  0  0  0
 16  7  1  0  0  0
 18 19  2  0  0  0
 19 20  1  0  0  0
 20 28  2  0  0  0
 20 21  1  0  0  0
 21 22  1  0  0  0
 22 27  2  0  0  0
 22 26  2  0  0  0
 22 23  1  0  0  0
 23 25  1  0  0  0
 23 24  1  0  0  0
 28  2  1  0  0  0
  4 29  1  0  0  0
  4 30  1  0  0  0
  5 31  1  0  0  0
  8 32  1  0  0  0
  9 33  1  0  0  0
 12 34  1  0  0  0
 12 35  1  0  0  0
 12 36  1  0  0  0
 13 37  1  0  0  0
 13 38  1  0  0  0
 13 39  1  0  0  0
 14 40  1  0  0  0
 14 41  1  0  0  0
 14 42  1  0  0  0
 15 43  1  0  0  0
 16 44  1  0  0  0
 18 45  1  0  0  0
 19 46  1  0  0  0
 21 47  1  0  0  0
 23 48  1  0  0  0
 24 49  1  0  0  0
 24 50  1  0  0  0
 24 51  1  0  0  0
 25 52  1  0  0  0
 25 53  1  0  0  0
 25 54  1  0  0  0
 28 55  1  0  0  0
M  END
> <pIC50>
7.951

$$$$
D1_01
  DSViewer          3D                             0

 49 50  0  0  0  0  0  0  0  0999 V2000
    3.3351   -1.6667   -2.5219 Cl  0  0
    3.8314   -0.9915   -0.9789 C   0  0
    3.0198   -1.2315    0.0710 C   0  0
    1.8662   -2.2277    0.0557 C   0  0
    0.6358   -1.4797    0.0488 N   0  0
   -0.6824   -1.8849    0.3824 C   0  0
   -1.8612   -1.0910    0.2352 C   0  0
   -2.0395    0.2520    0.3752 C   0  0
   -3.2654    0.8879    0.1309 C   0  0
   -4.3580    0.1401   -0.2758 C   0  0
   -5.7313    0.6243   -0.5240 C   0  0
   -6.2610   -0.0566   -1.7884 C   0  0
   -6.5668    0.0393    0.6544 C   0  0
   -5.9902    2.0846   -0.5717 C   0  0
   -4.1934   -1.2137   -0.4119 C   0  0
   -2.9952   -1.8011   -0.1716 C   0  0
   -0.8196   -3.1002    0.8396 O   0  0
    3.3541   -0.6454    1.3169 C   0  0
    4.4962    0.1454    1.4190 C   0  0
    5.3268    0.3681    0.2906 C   0  0
    6.4722    1.1914    0.3735 N   0  0
    7.6440    1.1746    1.5823 S   0  0
    8.5563   -0.3094    1.7481 C   0  0
    8.6356    2.3267    1.2523 O   0  0
    6.9974    1.5389    2.9055 O   0  0
    4.9625   -0.2168   -0.9033 C   0  0
    1.9278   -2.8586   -0.8253 H   0  0
    1.9199   -2.7851    1.0257 H   0  0
    0.6823   -0.4333   -0.2932 H   0  0
   -1.1895    0.8216    0.6952 H   0  0
   -3.3819    1.9307    0.2425 H   0  0
   -7.0936    0.5891   -2.1605 H   0  0
   -6.7119   -1.0075   -1.4966 H   0  0
   -5.4373   -0.0996   -2.5276 H   0  0
   -7.6352    0.2029    0.4962 H   0  0
   -6.1904    0.5992    1.5551 H   0  0
   -6.3304   -1.0260    0.7317 H   0  0
   -5.5082    2.6065    0.2563 H   0  0
   -7.1339    2.1543   -0.4517 H   0  0
   -5.6925    2.5466   -1.5415 H   0  0
   -5.0258   -1.8454   -0.7369 H   0  0
   -2.8717   -2.8895   -0.2957 H   0  0
    2.7518   -0.8185    2.1795 H   0  0
    4.8100    0.6051    2.3412 H   0  0
    6.5889    1.8684   -0.4465 H   0  0
    8.2934   -1.0732    1.0125 H   0  0
    9.6676   -0.0809    1.6594 H   0  0
    8.4076   -0.7464    2.7546 H   0  0
    5.5936   -0.0616   -1.7843 H   0  0
  1  2  1  0  0  0
  2  3  2  0  0  0
  3 18  1  0  0  0
  3  4  1  0  0  0
  4  5  1  0  0  0
  5  6  1  0  0  0
  6 17  2  0  0  0
  6  7  1  0  0  0
  7  8  2  0  0  0
  8  9  1  0  0  0
  9 10  2  0  0  0
 10 15  1  0  0  0
 10 11  1  0  0  0
 11 14  1  0  0  0
 11 13  1  0  0  0
 11 12  1  0  0  0
 15 16  2  0  0  0
 16  7  1  0  0  0
 18 19  2  0  0  0
 19 20  1  0  0  0
 20 26  2  0  0  0
 20 21  1  0  0  0
 21 22  1  0  0  0
 22 25  2  0  0  0
 22 24  2  0  0  0
 22 23  1  0  0  0
 26  2  1  0  0  0
  4 27  1  0  0  0
  4 28  1  0  0  0
  5 29  1  0  0  0
  8 30  1  0  0  0
  9 31  1  0  0  0
 12 32  1  0  0  0
 12 33  1  0  0  0
 12 34  1  0  0  0
 13 35  1  0  0  0
 13 36  1  0  0  0
 13 37  1  0  0  0
 14 38  1  0  0  0
 14 39  1  0  0  0
 14 40  1  0  0  0
 15 41  1  0  0  0
 16 42  1  0  0  0
 18 43  1  0  0  0
 19 44  1  0  0  0
 21 45  1  0  0  0
 23 46  1  0  0  0
 23 47  1  0  0  0
 23 48  1  0  0  0
 26 49  1  0  0  0
M  END
> <pIC50>
8.387

$$$$
D1_02
  DSViewer          3D                             0

 52 53  0  0  0  0  0  0  0  0999 V2000
    4.5415   -3.1497   -1.1888 Cl  0  0
    4.2052   -1.5828   -0.4736 C   0  0
    2.8796   -1.1347   -0.3168 C   0  0
    1.8540   -2.0477   -0.8146 C   0  0
    0.5032   -1.6677   -0.7076 N   0  0
   -0.2239   -1.4031    0.4902 C   0  0
   -1.6402   -1.0172    0.3982 C   0  0
   -2.0769    0.2823    0.3659 C   0  0
   -3.4313    0.6043    0.2570 C   0  0
   -4.3901   -0.3791    0.1783 C   0  0
   -5.8376   -0.0748    0.0463 C   0  0
   -6.6658   -1.2998    0.2523 C   0  0
   -6.2920    1.0367    0.9546 C   0  0
   -6.1222    0.4187   -1.3809 C   0  0
   -3.9490   -1.6811    0.2128 C   0  0
   -2.6126   -2.0168    0.3198 C   0  0
    0.3397   -1.4991    1.6017 O   0  0
    2.6937    0.0937    0.2561 C   0  0
    3.7835    0.8499    0.6580 C   0  0
    5.0947    0.4246    0.5078 C   0  0
    6.1887    1.2443    0.8858 N   0  0
    7.8171    0.7225    0.9365 S   0  0
    8.1320   -0.5977    2.0543 C   0  0
    9.6264   -0.9297    1.9607 C   0  0
    8.3169    0.3516   -0.4420 O   0  0
    8.6693    1.9165    1.3642 O   0  0
    5.2715   -0.8123   -0.0683 C   0  0
    1.9908   -3.0573   -0.3120 H   0  0
    2.0763   -2.1829   -1.9252 H   0  0
   -0.0924   -1.5485   -1.5903 H   0  0
   -1.3406    1.0674    0.4246 H   0  0
   -3.7596    1.6343    0.2305 H   0  0
   -6.5190   -1.9857   -0.6082 H   0  0
   -6.4345   -1.8238    1.1881 H   0  0
   -7.7433   -0.9789    0.2234 H   0  0
   -5.7325    1.9643    0.7782 H   0  0
   -6.3400    0.7497    2.0221 H   0  0
   -7.3620    1.2511    0.6728 H   0  0
   -6.3299   -0.4602   -2.0268 H   0  0
   -7.0952    0.9768   -1.3175 H   0  0
   -5.3504    1.0916   -1.7450 H   0  0
   -4.7035   -2.4647    0.1506 H   0  0
   -2.2703   -3.0530    0.3462 H   0  0
    1.7045    0.4884    0.3947 H   0  0
    3.6431    1.8264    1.1104 H   0  0
    5.9706    2.2291    1.1473 H   0  0
    7.9917   -0.2294    3.1039 H   0  0
    7.5381   -1.4942    1.8484 H   0  0
    9.9121   -1.1832    0.9042 H   0  0
   10.1947    0.0070    2.1767 H   0  0
    9.9230   -1.7445    2.6459 H   0  0
    6.2824   -1.2021   -0.2065 H   0  0
  1  2  1  0  0  0
  2  3  2  0  0  0
  3 18  1  0  0  0
  3  4  1  0  0  0
  4  5  1  0  0  0
  5  6  1  0  0  0
  6 17  2  0  0  0
  6  7  1  0  0  0
  7  8  2  0  0  0
  8  9  1  0  0  0
  9 10  2  0  0  0
 10 15  1  0  0  0
 10 11  1  0  0  0
 11 14  1  0  0  0
 11 13  1  0  0  0
 11 12  1  0  0  0
 15 16  2  0  0  0
 16  7  1  0  0  0
 18 19  2  0  0  0
 19 20  1  0  0  0
 20 27  2  0  0  0
 20 21  1  0  0  0
 21 22  1  0  0  0
 22 26  2  0  0  0
 22 25  2  0  0  0
 22 23  1  0  0  0
 23 24  1  0  0  0
 27  2  1  0  0  0
  4 28  1  0  0  0
  4 29  1  0  0  0
  5 30  1  0  0  0
  8 31  1  0  0  0
  9 32  1  0  0  0
 12 33  1  0  0  0
 12 34  1  0  0  0
 12 35  1  0  0  0
 13 36  1  0  0  0
 13 37  1  0  0  0
 13 38  1  0  0  0
 14 39  1  0  0  0
 14 40  1  0  0  0
 14 41  1  0  0  0
 15 42  1  0  0  0
 16 43  1  0  0  0
 18 44  1  0  0  0
 19 45  1  0  0  0
 21 46  1  0  0  0
 23 47  1  0  0  0
 23 48  1  0  0  0
 24 49  1  0  0  0
 24 50  1  0  0  0
 24 51  1  0  0  0
 27 52  1  0  0  0
M  END
> <pIC50>
8.215

$$$$
D1_11
  DSViewer          3D                             0

 40 41  0  0  0  0  0  0  0  0999 V2000
    4.2110   -2.4400   -2.2230 Cl  0  0
    4.0848   -1.2677   -0.9421 C   0  0
    2.8072   -0.9624   -0.3570 C   0  0
    1.7187   -1.6614   -1.0065 C   0  0
    0.4413   -1.3599   -0.5939 N   0  0
   -0.2833   -1.4916    0.6052 C   0  0
   -1.6734   -0.9816    0.5240 C   0  0
   -2.6100   -1.8455    0.0221 C   0  0
   -3.9004   -1.4581   -0.2728 C   0  0
   -4.1889   -0.1306   -0.0281 C   0  0
   -5.5277    0.4105   -0.3723 C   0  0
   -6.3651   -0.5838   -0.8143 F   0  0
   -5.3176    1.2809   -1.4391 F   0  0
   -5.9857    1.0983    0.7115 F   0  0
   -3.2447    0.7406    0.4890 C   0  0
   -1.9527    0.3298    0.7811 C   0  0
    0.2312   -1.9874    1.5793 O   0  0
    2.7072   -0.0636    0.6440 C   0  0
    3.8329    0.6134    1.1501 C   0  0
    5.0490    0.3340    0.5954 C   0  0
    6.2477    0.9718    0.9514 N   0  0
    6.3804    2.6434    1.0649 S   0  0
    5.3617    3.3829    2.2900 C   0  0
    7.8181    2.9933    1.3415 O   0  0
    6.0384    3.2997   -0.2648 O   0  0
    5.1460   -0.6085   -0.4395 C   0  0
    1.8969   -2.7837   -1.0533 H   0  0
    1.7948   -1.4176   -2.1410 H   0  0
   -0.2112   -0.8878   -1.3776 H   0  0
   -2.3769   -2.8817   -0.1621 H   0  0
   -4.5776   -2.1833   -0.6473 H   0  0
   -3.5015    1.7669    0.6905 H   0  0
   -1.1935    0.9877    1.2028 H   0  0
    1.7719    0.2150    1.1319 H   0  0
    3.7086    1.3215    1.9601 H   0  0
    7.0609    0.3267    1.1517 H   0  0
    5.7604    4.4204    2.4527 H   0  0
    5.3503    2.8071    3.2285 H   0  0
    4.3350    3.5150    1.9488 H   0  0
    6.1264   -0.8597   -0.8749 H   0  0
  1  2  1  0  0  0
  2  3  2  0  0  0
  3 18  1  0  0  0
  3  4  1  0  0  0
  4  5  1  0  0  0
  5  6  1  0  0  0
  6 17  2  0  0  0
  6  7  1  0  0  0
  7  8  2  0  0  0
  8  9  1  0  0  0
  9 10  2  0  0  0
 10 15  1  0  0  0
 10 11  1  0  0  0
 11 14  1  0  0  0
 11 13  1  0  0  0
 11 12  1  0  0  0
 15 16  2  0  0  0
 16  7  1  0  0  0
 18 19  2  0  0  0
 19 20  1  0  0  0
 20 26  2  0  0  0
 20 21  1  0  0  0
 21 22  1  0  0  0
 22 25  2  0  0  0
 22 24  2  0  0  0
 22 23  1  0  0  0
 26  2  1  0  0  0
  4 27  1  0  0  0
  4 28  1  0  0  0
  5 29  1  0  0  0
  8 30  1  0  0  0
  9 31  1  0  0  0
 15 32  1  0  0  0
 16 33  1  0  0  0
 18 34  1  0  0  0
 19 35  1  0  0  0
 21 36  1  0  0  0
 23 37  1  0  0  0
 23 38  1  0  0  0
 23 39  1  0  0  0
 26 40  1  0  0  0
M  END
> <pIC50>
8.155

$$$$
D1_15
  DSViewer          3D                             0

 49 51  0  0  0  0  0  0  0  0999 V2000
    4.6401   -3.4040   -0.9160 Cl  0  0
    4.2602   -1.7860   -0.3608 C   0  0
    2.9212   -1.3913   -0.4009 C   0  0
    1.8968   -2.3295   -0.9216 C   0  0
    0.5741   -1.7858   -0.8554 N   0  0
   -0.1117   -1.4717    0.3489 C   0  0
   -1.4706   -0.9054    0.3380 C   0  0
   -1.6954    0.4545    0.3295 C   0  0
   -2.9898    0.9865    0.3197 C   0  0
   -4.0750    0.1442    0.3184 C   0  0
   -5.3717    0.7111    0.3082 N   0  0
   -5.6994    2.1199    0.2916 C   0  0
   -6.9376    2.2145   -0.6075 C   0  0
   -7.4150    0.7785   -0.7812 C   0  0
   -6.6613    0.0264    0.3125 C   0  0
   -3.8725   -1.2194    0.3268 C   0  0
   -2.5815   -1.7251    0.3364 C   0  0
    0.4675   -1.6879    1.4347 O   0  0
    2.6301   -0.1213    0.0352 C   0  0
    3.6187    0.7434    0.5002 C   0  0
    4.9466    0.3494    0.5394 C   0  0
    5.9339    1.2682    1.0225 N   0  0
    7.4035    1.4843    0.1661 S   0  0
    7.1188    2.1033   -1.4766 C   0  0
    8.0941    0.1673    0.0461 O   0  0
    8.2635    2.4721    0.9372 O   0  0
    5.2364   -0.9228    0.1016 C   0  0
    2.1138   -2.5462   -2.0099 H   0  0
    1.9799   -3.3265   -0.4383 H   0  0
    0.0207   -1.5831   -1.7361 H   0  0
   -0.8546    1.1334    0.3303 H   0  0
   -3.0713    2.0527    0.3137 H   0  0
   -4.9299    2.7585   -0.1372 H   0  0
   -6.0205    2.4158    1.3126 H   0  0
   -6.6871    2.6610   -1.5859 H   0  0
   -7.7212    2.8522   -0.1470 H   0  0
   -7.1305    0.4321   -1.7856 H   0  0
   -8.4970    0.6739   -0.6348 H   0  0
   -7.2159    0.2338    1.2541 H   0  0
   -6.5848   -1.0424    0.1233 H   0  0
   -4.7246   -1.8777    0.3258 H   0  0
   -2.3916   -2.7940    0.3431 H   0  0
    1.6176    0.2621    0.0216 H   0  0
    3.3875    1.7479    0.8456 H   0  0
    5.7767    1.8219    1.9029 H   0  0
    7.5334    1.4450   -2.2537 H   0  0
    6.0331    2.2311   -1.6491 H   0  0
    7.6171    3.0899   -1.5849 H   0  0
    6.2695   -1.2541    0.1244 H   0  0
  1  2  1  0  0  0
  2  3  2  0  0  0
  3 19  1  0  0  0
  3  4  1  0  0  0
  4  5  1  0  0  0
  5  6  1  0  0  0
  6 18  2  0  0  0
  6  7  1  0  0  0
  7  8  2  0  0  0
  8  9  1  0  0  0
  9 10  2  0  0  0
 10 16  1  0  0  0
 10 11  1  0  0  0
 11 12  1  0  0  0
 12 13  1  0  0  0
 13 14  1  0  0  0
 14 15  1  0  0  0
 15 11  1  0  0  0
 16 17  2  0  0  0
 17  7  1  0  0  0
 19 20  2  0  0  0
 20 21  1  0  0  0
 21 27  2  0  0  0
 21 22  1  0  0  0
 22 23  1  0  0  0
 23 26  2  0  0  0
 23 25  2  0  0  0
 23 24  1  0  0  0
 27  2  1  0  0  0
  4 28  1  0  0  0
  4 29  1  0  0  0
  5 30  1  0  0  0
  8 31  1  0  0  0
  9 32  1  0  0  0
 12 33  1  0  0  0
 12 34  1  0  0  0
 13 35  1  0  0  0
 13 36  1  0  0  0
 14 37  1  0  0  0
 14 38  1  0  0  0
 15 39  1  0  0  0
 15 40  1  0  0  0
 16 41  1  0  0  0
 17 42  1  0  0  0
 19 43  1  0  0  0
 20 44  1  0  0  0
 22 45  1  0  0  0
 24 46  1  0  0  0
 24 47  1  0  0  0
 24 48  1  0  0  0
 27 49  1  0  0  0
M  END
> <pIC50>
7.387

$$$$
D1_12
  DSViewer          3D                             0

 45 46  0  0  0  0  0  0  0  0999 V2000
   -6.9177    0.1615    0.7536 C   0  0
   -5.9549   -0.0347   -0.3168 N   0  0
   -6.4016   -0.0521   -1.6934 C   0  0
   -4.5728   -0.2326   -0.0626 C   0  0
   -3.6050    0.6985   -0.3029 C   0  0
   -2.2641    0.4631   -0.0095 C   0  0
   -4.1793   -1.4231    0.4852 C   0  0
   -2.8582   -1.6924    0.7891 C   0  0
   -1.8556   -0.7287    0.5420 C   0  0
   -0.5092   -1.0501    0.9676 C   0  0
    0.4770   -0.0845    1.2060 N   0  0
    1.7944   -0.4261    1.6492 C   0  0
    2.9825   -0.3604    0.8147 C   0  0
    3.1282   -1.0177   -0.3748 C   0  0
    1.7642   -1.8091   -1.1245 Cl  0  0
    4.3741   -1.0409   -1.0216 C   0  0
    5.4721   -0.4012   -0.4581 C   0  0
    6.7086   -0.4806   -1.1237 N   0  0
    8.2094   -0.3740   -0.2867 S   0  0
    8.4779   -1.6086    0.9299 C   0  0
    8.3247    1.0310    0.3040 O   0  0
    9.3393   -0.4410   -1.3489 O   0  0
    5.3241    0.2723    0.7404 C   0  0
    4.1124    0.3089    1.3825 C   0  0
   -0.2237   -2.3002    1.1400 O   0  0
   -7.5912   -0.7260    0.7691 H   0  0
   -6.3616    0.1968    1.7434 H   0  0
   -7.5306    1.0419    0.6412 H   0  0
   -6.3818   -1.1202   -2.0076 H   0  0
   -5.7637    0.5676   -2.3445 H   0  0
   -7.4734    0.2938   -1.7023 H   0  0
   -3.8622    1.6608   -0.7096 H   0  0
   -1.5140    1.2267   -0.2192 H   0  0
   -4.9342   -2.1959    0.7017 H   0  0
   -2.5172   -2.6277    1.1978 H   0  0
    0.2684    0.9542    1.0629 H   0  0
    1.7584   -1.4493    2.2076 H   0  0
    2.0067    0.2486    2.5943 H   0  0
    4.4085   -1.5632   -1.9588 H   0  0
    6.7444   -0.6182   -2.1598 H   0  0
    9.3957   -2.2148    0.6958 H   0  0
    7.6741   -2.3229    1.0975 H   0  0
    8.6719   -1.1036    1.9164 H   0  0
    6.1947    0.7860    1.1677 H   0  0
    4.0499    0.8212    2.3125 H   0  0
  1  2  1  0  0  0
  2  4  1  0  0  0
  2  3  1  0  0  0
  4  7  2  0  0  0
  4  5  1  0  0  0
  5  6  2  0  0  0
  7  8  1  0  0  0
  8  9  2  0  0  0
  9 10  1  0  0  0
  9  6  1  0  0  0
 10 25  2  0  0  0
 10 11  1  0  0  0
 11 12  1  0  0  0
 12 13  1  0  0  0
 13 14  2  0  0  0
 14 16  1  0  0  0
 14 15  1  0  0  0
 16 17  2  0  0  0
 17 23  1  0  0  0
 17 18  1  0  0  0
 18 19  1  0  0  0
 19 22  2  0  0  0
 19 21  2  0  0  0
 19 20  1  0  0  0
 23 24  2  0  0  0
 24 13  1  0  0  0
  1 26  1  0  0  0
  1 27  1  0  0  0
  1 28  1  0  0  0
  3 29  1  0  0  0
  3 30  1  0  0  0
  3 31  1  0  0  0
  5 32  1  0  0  0
  6 33  1  0  0  0
  7 34  1  0  0  0
  8 35  1  0  0  0
 11 36  1  0  0  0
 12 37  1  0  0  0
 12 38  1  0  0  0
 16 39  1  0  0  0
 18 40  1  0  0  0
 20 41  1  0  0  0
 20 42  1  0  0  0
 20 43  1  0  0  0
 23 44  1  0  0  0
 24 45  1  0  0  0
M  END
> <pIC50>
7.347

$$$$
D2_20
  DSViewer          3D                             0

 47 48  0  0  0  0  0  0  0  0999 V2000
    8.1964    0.3054   -0.1113 C   0  0
    6.8231    1.0309    0.8000 S   0  0
    5.3471    0.1734    0.4022 C   0  0
    4.2303    0.3629    1.1759 C   0  0
    3.0584   -0.3135    0.8996 C   0  0
    2.9716   -1.1815   -0.1379 C   0  0
    1.8132   -1.9806   -0.5351 C   0  0
    0.5115   -1.4533   -0.5294 N   0  0
   -0.4067   -1.2861    0.5341 C   0  0
   -1.7367   -0.7486    0.3562 C   0  0
   -2.7257   -1.6894    0.0649 C   0  0
   -4.0283   -1.3335   -0.1391 C   0  0
   -4.4253   -0.0130   -0.0670 C   0  0
   -5.8413    0.3155   -0.3202 C   0  0
   -6.4377   -0.7706   -1.2173 C   0  0
   -6.6400    0.2904    0.9491 C   0  0
   -6.0003    1.6203   -1.0814 C   0  0
   -3.4670    0.9327    0.2199 C   0  0
   -2.1485    0.5454    0.4247 C   0  0
   -0.0221   -1.6363    1.6784 O   0  0
    4.1475   -1.3419   -0.9036 C   0  0
    5.3184   -0.6960   -0.6650 C   0  0
    6.7340    2.4914    0.5562 O   0  0
    7.1376    0.8038    2.2628 O   0  0
    8.0428    0.5702   -1.1923 H   0  0
    9.1145    0.8151    0.2589 H   0  0
    8.1895   -0.7717    0.0455 H   0  0
    4.2184    1.0425    2.0365 H   0  0
    2.1807   -0.1440    1.5177 H   0  0
    2.0418   -2.4246   -1.5717 H   0  0
    1.9009   -2.9292    0.1085 H   0  0
    0.1247   -1.1209   -1.4804 H   0  0
   -2.4853   -2.7478   -0.0097 H   0  0
   -4.7848   -2.1019   -0.3536 H   0  0
   -5.6564   -1.1449   -1.9067 H   0  0
   -6.9424   -1.5515   -0.6364 H   0  0
   -7.2376   -0.3148   -1.8712 H   0  0
   -6.0436   -0.1449    1.7781 H   0  0
   -6.9318    1.3267    1.1950 H   0  0
   -7.5575   -0.3490    0.8697 H   0  0
   -6.2683    2.4385   -0.3759 H   0  0
   -6.7074    1.5238   -1.9144 H   0  0
   -5.0069    1.8272   -1.5381 H   0  0
   -3.7248    1.9782    0.2955 H   0  0
   -1.3892    1.3089    0.6536 H   0  0
    4.1348   -2.0424   -1.7494 H   0  0
    6.2121   -0.8311   -1.2576 H   0  0
  1  2  1  0  0  0
  2 24  2  0  0  0
  2 23  2  0  0  0
  2  3  1  0  0  0
  3  4  2  0  0  0
  4  5  1  0  0  0
  5  6  2  0  0  0
  6 21  1  0  0  0
  6  7  1  0  0  0
  7  8  1  0  0  0
  8  9  1  0  0  0
  9 20  2  0  0  0
  9 10  1  0  0  0
 10 11  2  0  0  0
 11 12  1  0  0  0
 12 13  2  0  0  0
 13 18  1  0  0  0
 13 14  1  0  0  0
 14 17  1  0  0  0
 14 16  1  0  0  0
 14 15  1  0  0  0
 18 19  2  0  0  0
 19 10  1  0  0  0
 21 22  2  0  0  0
 22  3  1  0  0  0
  1 25  1  0  0  0
  1 26  1  0  0  0
  1 27  1  0  0  0
  4 28  1  0  0  0
  5 29  1  0  0  0
  7 30  1  0  0  0
  7 31  1  0  0  0
  8 32  1  0  0  0
 11 33  1  0  0  0
 12 34  1  0  0  0
 15 35  1  0  0  0
 15 36  1  0  0  0
 15 37  1  0  0  0
 16 38  1  0  0  0
 16 39  1  0  0  0
 16 40  1  0  0  0
 17 41  1  0  0  0
 17 42  1  0  0  0
 17 43  1  0  0  0
 18 44  1  0  0  0
 19 45  1  0  0  0
 21 46  1  0  0  0
 22 47  1  0  0  0
M  END
> <pIC50>
5.921

$$$$
D2_08
  DSViewer          3D                             0

 46 47  0  0  0  0  0  0  0  0999 V2000
    7.8396    0.6701    0.8565 C   0  0
    6.3520    1.6748    0.6559 S   0  0
    4.9981    0.5313    0.3804 C   0  0
    4.6031    0.1559   -0.8822 C   0  0
    3.5773   -0.7464   -1.0753 C   0  0
    2.8818   -1.3312   -0.0068 C   0  0
    1.8210   -2.3221   -0.2654 C   0  0
    0.5192   -1.8147   -0.5360 N   0  0
   -0.2933   -1.3288    0.5086 C   0  0
   -1.6212   -0.8375    0.2403 C   0  0
   -2.6920   -1.7332    0.2421 C   0  0
   -3.9912   -1.3325    0.0348 C   0  0
   -4.2270    0.0255   -0.1836 C   0  0
   -5.6306    0.4500   -0.3590 C   0  0
   -6.4349   -0.5813   -1.1246 C   0  0
   -5.6865    1.8192   -0.9872 C   0  0
   -6.1992    0.6154    1.0509 C   0  0
   -3.1971    0.9132   -0.1909 C   0  0
   -1.8967    0.4802    0.0206 C   0  0
    0.1273   -1.3150    1.7219 O   0  0
    3.2912   -0.9426    1.2524 C   0  0
    4.3298   -0.0280    1.4457 C   0  0
    6.4907    2.5770   -0.5641 O   0  0
    8.6955    1.3745    0.9976 H   0  0
    8.0399    0.0332   -0.0183 H   0  0
    7.7479    0.0796    1.7640 H   0  0
    5.1122    0.5804   -1.7511 H   0  0
    3.2458   -1.0586   -2.0692 H   0  0
    1.7791   -3.0834    0.5821 H   0  0
    2.0867   -2.9868   -1.1449 H   0  0
    0.1315   -1.7871   -1.5281 H   0  0
   -2.4763   -2.7614    0.4097 H   0  0
   -4.7798   -2.0565    0.0490 H   0  0
   -7.0803   -0.0198   -1.8279 H   0  0
   -5.8123   -1.2870   -1.7002 H   0  0
   -7.0345   -1.1789   -0.4007 H   0  0
   -4.8607    1.9937   -1.7016 H   0  0
   -5.7635    2.6307   -0.2175 H   0  0
   -6.6191    1.8368   -1.6276 H   0  0
   -7.2026    1.0365    0.9835 H   0  0
   -6.1475   -0.3311    1.6187 H   0  0
   -5.4833    1.3146    1.5672 H   0  0
   -3.3715    1.9521   -0.3580 H   0  0
   -1.1072    1.2311   -0.0015 H   0  0
    2.7906   -1.3692    2.1178 H   0  0
    4.6292    0.2597    2.4495 H   0  0
  1  2  1  0  0  0
  2 23  2  0  0  0
  2  3  1  0  0  0
  3  4  2  0  0  0
  4  5  1  0  0  0
  5  6  2  0  0  0
  6 21  1  0  0  0
  6  7  1  0  0  0
  7  8  1  0  0  0
  8  9  1  0  0  0
  9 20  2  0  0  0
  9 10  1  0  0  0
 10 11  2  0  0  0
 11 12  1  0  0  0
 12 13  2  0  0  0
 13 18  1  0  0  0
 13 14  1  0  0  0
 14 17  1  0  0  0
 14 16  1  0  0  0
 14 15  1  0  0  0
 18 19  2  0  0  0
 19 10  1  0  0  0
 21 22  2  0  0  0
 22  3  1  0  0  0
  1 24  1  0  0  0
  1 25  1  0  0  0
  1 26  1  0  0  0
  4 27  1  0  0  0
  5 28  1  0  0  0
  7 29  1  0  0  0
  7 30  1  0  0  0
  8 31  1  0  0  0
 11 32  1  0  0  0
 12 33  1  0  0  0
 15 34  1  0  0  0
 15 35  1  0  0  0
 15 36  1  0  0  0
 16 37  1  0  0  0
 16 38  1  0  0  0
 16 39  1  0  0  0
 17 40  1  0  0  0
 17 41  1  0  0  0
 17 42  1  0  0  0
 18 43  1  0  0  0
 19 44  1  0  0  0
 21 45  1  0  0  0
 22 46  1  0  0  0
M  END
> <pIC50>
6.658

$$$$
D2_14
  DSViewer          3D                             0

 49 50  0  0  0  0  0  0  0  0999 V2000
    8.0189   -0.3547    2.2437 C   0  0
    7.9046    0.7913    0.8860 S   0  0
    6.2657    1.2919    0.7185 N   0  0
    5.1937    0.4249    0.4278 C   0  0
    5.2457   -0.5764   -0.5151 C   0  0
    4.1385   -1.3636   -0.7351 C   0  0
    2.9266   -1.2158   -0.0461 C   0  0
    1.8678   -2.1552   -0.4099 C   0  0
    0.5408   -1.6538   -0.5135 N   0  0
   -0.3902   -1.4344    0.5237 C   0  0
   -1.7312   -0.8920    0.3140 C   0  0
   -2.0036    0.4543    0.3742 C   0  0
   -3.3155    0.9052    0.1707 C   0  0
   -4.3393    0.0359   -0.0886 C   0  0
   -5.7554    0.4407   -0.3178 C   0  0
   -6.3278   -0.2685   -1.5050 C   0  0
   -5.8522    1.9173   -0.5610 C   0  0
   -6.5383    0.1017    0.9366 C   0  0
   -4.0647   -1.3267   -0.1516 C   0  0
   -2.7541   -1.7714    0.0537 C   0  0
   -0.0321   -1.7284    1.7170 O   0  0
    2.8874   -0.2219    0.8837 C   0  0
    4.0053    0.5792    1.1094 C   0  0
    8.4220    0.0956   -0.3358 O   0  0
    8.7844    1.9828    1.2366 O   0  0
    8.4304   -1.3486    1.9263 H   0  0
    7.0528   -0.4710    2.7582 H   0  0
    8.7316    0.0306    3.0352 H   0  0
    6.0803    2.3352    0.8490 H   0  0
    6.1605   -0.7305   -1.0705 H   0  0
    4.2512   -2.1412   -1.4994 H   0  0
    1.9537   -3.0112    0.3203 H   0  0
    2.1148   -2.6306   -1.3926 H   0  0
    0.1459   -1.3934   -1.4809 H   0  0
   -1.1962    1.1299    0.5871 H   0  0
   -3.5254    1.9612    0.2286 H   0  0
   -5.5610   -0.5085   -2.2340 H   0  0
   -7.0970    0.3750   -2.0301 H   0  0
   -6.8585   -1.2013   -1.2457 H   0  0
   -5.0126    2.2588   -1.1689 H   0  0
   -5.8909    2.4093    0.4458 H   0  0
   -6.8009    2.1685   -1.0546 H   0  0
   -5.9712   -0.6011    1.5809 H   0  0
   -7.4695   -0.4008    0.6321 H   0  0
   -6.7227    1.0268    1.4926 H   0  0
   -4.8365   -2.0596   -0.3577 H   0  0
   -2.6056   -2.8446   -0.0137 H   0  0
    1.9778   -0.0570    1.4255 H   0  0
    3.9219    1.3621    1.8635 H   0  0
  1  2  1  0  0  0
  2 25  2  0  0  0
  2 24  2  0  0  0
  2  3  1  0  0  0
  3  4  1  0  0  0
  4  5  2  0  0  0
  5  6  1  0  0  0
  6  7  2  0  0  0
  7 22  1  0  0  0
  7  8  1  0  0  0
  8  9  1  0  0  0
  9 10  1  0  0  0
 10 21  2  0  0  0
 10 11  1  0  0  0
 11 12  2  0  0  0
 12 13  1  0  0  0
 13 14  2  0  0  0
 14 19  1  0  0  0
 14 15  1  0  0  0
 15 18  1  0  0  0
 15 17  1  0  0  0
 15 16  1  0  0  0
 19 20  2  0  0  0
 20 11  1  0  0  0
 22 23  2  0  0  0
 23  4  1  0  0  0
  1 26  1  0  0  0
  1 27  1  0  0  0
  1 28  1  0  0  0
  3 29  1  0  0  0
  5 30  1  0  0  0
  6 31  1  0  0  0
  8 32  1  0  0  0
  8 33  1  0  0  0
  9 34  1  0  0  0
 12 35  1  0  0  0
 13 36  1  0  0  0
 16 37  1  0  0  0
 16 38  1  0  0  0
 16 39  1  0  0  0
 17 40  1  0  0  0
 17 41  1  0  0  0
 17 42  1  0  0  0
 18 43  1  0  0  0
 18 44  1  0  0  0
 18 45  1  0  0  0
 19 46  1  0  0  0
 20 47  1  0  0  0
 22 48  1  0  0  0
 23 49  1  0  0  0
M  END
> <pIC50>
6.187

$$$$
D2_03
  DSViewer          3D                             0

 45 46  0  0  0  0  0  0  0  0999 V2000
    8.0322    0.9108   -0.3411 C   0  0
    6.6792    1.2007    0.7868 S   0  0
    5.2416    0.2271    0.4071 C   0  0
    4.0945    0.3536    1.1456 C   0  0
    2.9411   -0.4089    0.8755 C   0  0
    2.8874   -1.3240   -0.1388 C   0  0
    1.7502   -2.1777   -0.5018 C   0  0
    0.4633   -1.6204   -0.5429 N   0  0
   -0.3435   -1.4484    0.6091 C   0  0
   -1.6668   -0.8638    0.3916 C   0  0
   -2.0129    0.4016    0.7474 C   0  0
   -3.3149    0.8384    0.4845 C   0  0
   -4.2687    0.0490   -0.1179 C   0  0
   -5.6498    0.4978   -0.3883 C   0  0
   -6.2791    0.8877    0.9429 C   0  0
   -6.4852   -0.6617   -0.9059 C   0  0
   -5.6694    1.6443   -1.3623 C   0  0
   -3.8813   -1.2445   -0.4700 C   0  0
   -2.5972   -1.6800   -0.2136 C   0  0
   -0.0302   -1.7515    1.7772 O   0  0
    4.0839   -1.4301   -0.8826 C   0  0
    5.2030   -0.6872   -0.6177 C   0  0
    8.6205    1.8660   -0.4022 H   0  0
    8.7136    0.1489    0.0389 H   0  0
    7.7153    0.6062   -1.3509 H   0  0
    4.0929    1.0714    1.9662 H   0  0
    2.0671   -0.2559    1.4893 H   0  0
    1.9594   -2.6486   -1.5190 H   0  0
    1.7051   -3.0988    0.1609 H   0  0
    0.0511   -1.2985   -1.4862 H   0  0
   -1.2990    1.0816    1.2339 H   0  0
   -3.5481    1.8376    0.7814 H   0  0
   -5.5361    1.3922    1.5953 H   0  0
   -6.5428   -0.0606    1.4955 H   0  0
   -7.1454    1.5255    0.8403 H   0  0
   -7.5458   -0.2701   -0.9373 H   0  0
   -6.1711   -0.9838   -1.9076 H   0  0
   -6.4669   -1.4676   -0.1633 H   0  0
   -4.8862    2.3679   -1.0911 H   0  0
   -5.4335    1.2420   -2.3666 H   0  0
   -6.6801    2.1093   -1.3812 H   0  0
   -4.6297   -1.8657   -0.9458 H   0  0
   -2.3373   -2.7106   -0.5111 H   0  0
    4.0577   -2.1613   -1.7052 H   0  0
    6.0855   -0.8192   -1.2292 H   0  0
  1  2  1  0  0  0
  2  3  1  0  0  0
  3  4  2  0  0  0
  4  5  1  0  0  0
  5  6  2  0  0  0
  6 21  1  0  0  0
  6  7  1  0  0  0
  7  8  1  0  0  0
  8  9  1  0  0  0
  9 20  2  0  0  0
  9 10  1  0  0  0
 10 11  2  0  0  0
 11 12  1  0  0  0
 12 13  2  0  0  0
 13 18  1  0  0  0
 13 14  1  0  0  0
 14 17  1  0  0  0
 14 16  1  0  0  0
 14 15  1  0  0  0
 18 19  2  0  0  0
 19 10  1  0  0  0
 21 22  2  0  0  0
 22  3  1  0  0  0
  1 23  1  0  0  0
  1 24  1  0  0  0
  1 25  1  0  0  0
  4 26  1  0  0  0
  5 27  1  0  0  0
  7 28  1  0  0  0
  7 29  1  0  0  0
  8 30  1  0  0  0
 11 31  1  0  0  0
 12 32  1  0  0  0
 15 33  1  0  0  0
 15 34  1  0  0  0
 15 35  1  0  0  0
 16 36  1  0  0  0
 16 37  1  0  0  0
 16 38  1  0  0  0
 17 39  1  0  0  0
 17 40  1  0  0  0
 17 41  1  0  0  0
 18 42  1  0  0  0
 19 43  1  0  0  0
 21 44  1  0  0  0
 22 45  1  0  0  0
M  END
> <pIC50>
6.921

$$$$
D2_37
  DSViewer          3D                             0

 43 44  0  0  0  0  0  0  0  0999 V2000
    6.4325   -0.7394   -1.0817 F   0  0
    5.2533   -0.5999   -0.3934 C   0  0
    5.2376    0.3644    0.5912 C   0  0
    6.3961    1.1883    0.8926 C   0  0
    7.5874    1.0383    0.1869 O   0  5
    6.3758    2.0601    1.7907 O   0  0
    4.0464    0.4901    1.2705 C   0  0
    2.9260   -0.2960    0.9933 C   0  0
    2.9578   -1.2446    0.0174 C   0  0
    1.8685   -2.1480   -0.3743 C   0  0
    0.5640   -1.6261   -0.4796 N   0  0
   -0.3929   -1.4103    0.5435 C   0  0
   -1.7117   -0.8664    0.3084 C   0  0
   -2.7574   -1.7489    0.1376 C   0  0
   -4.0531   -1.3184   -0.0840 C   0  0
   -4.3066    0.0326   -0.1356 C   0  0
   -5.7126    0.4630   -0.3670 C   0  0
   -6.5612   -0.0579    0.7666 C   0  0
   -5.8493    1.9641   -0.4312 C   0  0
   -6.1308   -0.1741   -1.6860 C   0  0
   -3.2842    0.9296    0.0308 C   0  0
   -1.9750    0.4727    0.2548 C   0  0
   -0.0601   -1.7188    1.7261 O   0  0
    4.1713   -1.3841   -0.6861 C   0  0
    4.0189    1.2507    2.0551 H   0  0
    2.0318   -0.1371    1.5607 H   0  0
    1.9424   -3.0153    0.3463 H   0  0
    2.1036   -2.6464   -1.3616 H   0  0
    0.1957   -1.3321   -1.4488 H   0  0
   -2.6070   -2.8246    0.1702 H   0  0
   -4.8783   -1.9981   -0.2196 H   0  0
   -6.2483    0.4797    1.6740 H   0  0
   -6.3312   -1.1360    0.9063 H   0  0
   -7.6444   -0.0039    0.5573 H   0  0
   -5.2490    2.4266   -1.2143 H   0  0
   -6.9265    2.1814   -0.5798 H   0  0
   -5.5629    2.3697    0.5666 H   0  0
   -7.0086    0.2856   -2.1404 H   0  0
   -6.3202   -1.2658   -1.4737 H   0  0
   -5.2607   -0.1235   -2.3927 H   0  0
   -3.5011    1.9817   -0.0130 H   0  0
   -1.2023    1.2017    0.3813 H   0  0
    4.2231   -2.1352   -1.4677 H   0  0
  1  2  1  0  0  0
  2  3  2  0  0  0
  3  7  1  0  0  0
  3  4  1  0  0  0
  4  6  2  0  0  0
  4  5  1  0  0  0
  7  8  2  0  0  0
  8  9  1  0  0  0
  9 24  2  0  0  0
  9 10  1  0  0  0
 10 11  1  0  0  0
 11 12  1  0  0  0
 12 23  2  0  0  0
 12 13  1  0  0  0
 13 14  2  0  0  0
 14 15  1  0  0  0
 15 16  2  0  0  0
 16 21  1  0  0  0
 16 17  1  0  0  0
 17 20  1  0  0  0
 17 19  1  0  0  0
 17 18  1  0  0  0
 21 22  2  0  0  0
 22 13  1  0  0  0
 24  2  1  0  0  0
  7 25  1  0  0  0
  8 26  1  0  0  0
 10 27  1  0  0  0
 10 28  1  0  0  0
 11 29  1  0  0  0
 14 30  1  0  0  0
 15 31  1  0  0  0
 18 32  1  0  0  0
 18 33  1  0  0  0
 18 34  1  0  0  0
 19 35  1  0  0  0
 19 36  1  0  0  0
 19 37  1  0  0  0
 20 38  1  0  0  0
 20 39  1  0  0  0
 20 40  1  0  0  0
 21 41  1  0  0  0
 22 42  1  0  0  0
 24 43  1  0  0  0
M  CHG  1   5  -1
M  END
> <pIC50>
4.693

$$$$
D2_21
  DSViewer          3D                             0

 43 44  0  0  0  0  0  0  0  0999 V2000
    4.4490   -2.9516   -0.8541 F   0  0
    4.2337   -1.7162   -0.3293 C   0  0
    2.9393   -1.1682   -0.2430 C   0  0
    1.8830   -2.0315   -0.7757 C   0  0
    0.5509   -1.5656   -0.7383 N   0  0
   -0.2414   -1.2786    0.4024 C   0  0
   -1.6226   -0.8003    0.2614 C   0  0
   -2.6429   -1.7509    0.2764 C   0  0
   -3.9670   -1.3840    0.1378 C   0  0
   -4.3077   -0.0571   -0.0197 C   0  0
   -5.7116    0.3610   -0.1684 C   0  0
   -6.2335    0.6470    1.2313 C   0  0
   -5.8635    1.5505   -1.0682 C   0  0
   -6.5733   -0.7549   -0.7342 C   0  0
   -3.3083    0.8816   -0.0355 C   0  0
   -1.9725    0.5055    0.1047 C   0  0
    0.2448   -1.4372    1.5355 O   0  0
    2.7596    0.0738    0.2874 C   0  0
    3.8622    0.7716    0.7301 C   0  0
    5.1427    0.2770    0.6648 C   0  0
    6.3203    1.0368    1.1316 C   0  0
    6.1095    2.2968    1.6599 O   0  5
    7.4689    0.5587    1.0511 O   0  0
    5.2990   -0.9928    0.1196 C   0  0
    2.0222   -3.0451   -0.3216 H   0  0
    2.1624   -2.2065   -1.8601 H   0  0
    0.0218   -1.3895   -1.6581 H   0  0
   -2.4069   -2.7743    0.3970 H   0  0
   -4.7813   -2.1102    0.1465 H   0  0
   -7.3003    0.4035    1.3346 H   0  0
   -6.0711    1.6821    1.5426 H   0  0
   -5.6518   -0.0048    1.9317 H   0  0
   -6.8647    1.5004   -1.5451 H   0  0
   -5.7827    2.5189   -0.5323 H   0  0
   -5.1267    1.5438   -1.8776 H   0  0
   -5.9491   -1.2950   -1.4834 H   0  0
   -6.9824   -1.4261    0.0465 H   0  0
   -7.4350   -0.2832   -1.2307 H   0  0
   -3.5518    1.9443   -0.1574 H   0  0
   -1.2113    1.2532    0.0896 H   0  0
    1.7505    0.4911    0.3496 H   0  0
    3.6932    1.7521    1.1446 H   0  0
    6.3174   -1.3655    0.0742 H   0  0
  1  2  1  0  0  0
  2  3  2  0  0  0
  3 18  1  0  0  0
  3  4  1  0  0  0
  4  5  1  0  0  0
  5  6  1  0  0  0
  6 17  2  0  0  0
  6  7  1  0  0  0
  7  8  2  0  0  0
  8  9  1  0  0  0
  9 10  2  0  0  0
 10 15  1  0  0  0
 10 11  1  0  0  0
 11 14  1  0  0  0
 11 13  1  0  0  0
 11 12  1  0  0  0
 15 16  2  0  0  0
 16  7  1  0  0  0
 18 19  2  0  0  0
 19 20  1  0  0  0
 20 24  2  0  0  0
 20 21  1  0  0  0
 21 23  2  0  0  0
 21 22  1  0  0  0
 24  2  1  0  0  0
  4 25  1  0  0  0
  4 26  1  0  0  0
  5 27  1  0  0  0
  8 28  1  0  0  0
  9 29  1  0  0  0
 12 30  1  0  0  0
 12 31  1  0  0  0
 12 32  1  0  0  0
 13 33  1  0  0  0
 13 34  1  0  0  0
 13 35  1  0  0  0
 14 36  1  0  0  0
 14 37  1  0  0  0
 14 38  1  0  0  0
 15 39  1  0  0  0
 16 40  1  0  0  0
 18 41  1  0  0  0
 19 42  1  0  0  0
 24 43  1  0  0  0
M  CHG  1  22  -1
M  END
> <pIC50>
5.845

$$$$
D2_19
  DSViewer          3D                             0

 45 46  0  0  0  0  0  0  0  0999 V2000
    7.5430    0.8181    0.5930 N   0  0
    6.2354    1.3140    0.8605 C   0  0
    5.1003    0.4647    0.5206 C   0  0
    3.7891    0.8012    0.7966 C   0  0
    2.7473   -0.0630    0.4257 C   0  0
    2.9717   -1.2499   -0.2091 C   0  0
    1.8878   -2.1601   -0.6214 C   0  0
    0.5746   -1.6088   -0.6435 N   0  0
   -0.2888   -1.4067    0.4564 C   0  0
   -1.6162   -0.8338    0.2875 C   0  0
   -2.6991   -1.6735    0.5182 C   0  0
   -4.0127   -1.2797    0.3775 C   0  0
   -4.2496    0.0210   -0.0134 C   0  0
   -5.6542    0.4377   -0.1903 C   0  0
   -6.5008   -0.0366    0.9571 C   0  0
   -6.1769   -0.2258   -1.4705 C   0  0
   -5.8367    1.9225   -0.3254 C   0  0
   -3.1855    0.8613   -0.2437 C   0  0
   -1.8669    0.4498   -0.0972 C   0  0
    0.0816   -1.7231    1.6033 O   0  0
    4.3052   -1.5835   -0.4834 C   0  0
    5.3154   -0.7463   -0.1256 C   0  0
    6.0768    2.4355    1.3663 O   0  0
    8.3080    1.3847    0.1603 H   0  0
    7.7913   -0.1900    0.8339 H   0  0
    3.5428    1.7327    1.3027 H   0  0
    1.7177    0.2234    0.6549 H   0  0
    2.1867   -2.5584   -1.6458 H   0  0
    1.9210   -3.1229   -0.0070 H   0  0
    0.1906   -1.3092   -1.5842 H   0  0
   -2.5164   -2.7157    0.8378 H   0  0
   -4.8430   -1.9777    0.5736 H   0  0
   -6.0266    0.1502    1.9432 H   0  0
   -7.4964    0.4781    1.0161 H   0  0
   -6.6990   -1.1247    0.8727 H   0  0
   -5.9010    0.3777   -2.3287 H   0  0
   -7.2673   -0.3663   -1.3853 H   0  0
   -5.7488   -1.2504   -1.5563 H   0  0
   -5.2474    2.4723    0.4345 H   0  0
   -6.9197    2.1778   -0.1385 H   0  0
   -5.6115    2.2605   -1.3605 H   0  0
   -3.3658    1.9065   -0.5549 H   0  0
   -1.0522    1.1116   -0.2752 H   0  0
    4.4492   -2.5471   -0.9971 H   0  0
    6.3404   -1.0387   -0.3575 H   0  0
  1  2  1  0  0  0
  2 23  2  0  0  0
  2  3  1  0  0  0
  3  4  2  0  0  0
  4  5  1  0  0  0
  5  6  2  0  0  0
  6 21  1  0  0  0
  6  7  1  0  0  0
  7  8  1  0  0  0
  8  9  1  0  0  0
  9 20  2  0  0  0
  9 10  1  0  0  0
 10 11  2  0  0  0
 11 12  1  0  0  0
 12 13  2  0  0  0
 13 18  1  0  0  0
 13 14  1  0  0  0
 14 17  1  0  0  0
 14 16  1  0  0  0
 14 15  1  0  0  0
 18 19  2  0  0  0
 19 10  1  0  0  0
 21 22  2  0  0  0
 22  3  1  0  0  0
  1 24  1  0  0  0
  1 25  1  0  0  0
  4 26  1  0  0  0
  5 27  1  0  0  0
  7 28  1  0  0  0
  7 29  1  0  0  0
  8 30  1  0  0  0
 11 31  1  0  0  0
 12 32  1  0  0  0
 15 33  1  0  0  0
 15 34  1  0  0  0
 15 35  1  0  0  0
 16 36  1  0  0  0
 16 37  1  0  0  0
 16 38  1  0  0  0
 17 39  1  0  0  0
 17 40  1  0  0  0
 17 41  1  0  0  0
 18 42  1  0  0  0
 19 43  1  0  0  0
 21 44  1  0  0  0
 22 45  1  0  0  0
M  END
> <pIC50>
5.921

$$$$
D2_25
  DSViewer          3D                             0

 43 44  0  0  0  0  0  0  0  0999 V2000
    6.2685    1.1541    0.8909 N   0  0
    5.1415    0.3546    0.6099 C   0  0
    4.2492   -0.1187    1.5212 C   0  0
    3.1546   -0.9325    1.1840 C   0  0
    2.9437   -1.2865   -0.1146 C   0  0
    1.8607   -2.1718   -0.5380 C   0  0
    0.5619   -1.5834   -0.5864 N   0  0
   -0.3508   -1.4312    0.4946 C   0  0
   -1.6469   -0.8266    0.2844 C   0  0
   -2.7270   -1.5105    0.8265 C   0  0
   -3.9991   -1.0681    0.6466 C   0  0
   -4.2289    0.0935   -0.0952 C   0  0
   -5.6651    0.4893   -0.3062 C   0  0
   -6.4903    0.3353    0.9381 C   0  0
   -5.6985    1.8478   -0.9124 C   0  0
   -6.1939   -0.5815   -1.2879 C   0  0
   -3.1677    0.7594   -0.6206 C   0  0
   -1.8673    0.3044   -0.4334 C   0  0
   -0.0429   -1.8289    1.6334 O   0  0
    3.8637   -0.7991   -1.0680 C   0  0
    4.9270   -0.0069   -0.7231 C   0  0
    6.2033    1.9267    1.5671 H   0  0
    7.1692    0.9781    0.4157 H   0  0
    4.4250    0.1690    2.5626 H   0  0
    2.5130   -1.2557    2.0001 H   0  0
    2.0464   -2.5956   -1.5773 H   0  0
    1.8541   -3.1358    0.0834 H   0  0
    0.1936   -1.2005   -1.5034 H   0  0
   -2.6000   -2.4154    1.4113 H   0  0
   -4.8658   -1.5875    1.0707 H   0  0
   -7.3306    1.0417    1.0028 H   0  0
   -6.9903   -0.6850    0.9863 H   0  0
   -5.8341    0.3596    1.8144 H   0  0
   -5.3654    1.7682   -1.9796 H   0  0
   -4.9963    2.5512   -0.4288 H   0  0
   -6.7143    2.3001   -0.9158 H   0  0
   -7.2842   -0.6583   -1.1552 H   0  0
   -5.7569   -1.5485   -0.9196 H   0  0
   -5.8619   -0.3441   -2.3114 H   0  0
   -3.3427    1.6809   -1.2033 H   0  0
   -1.0433    0.8714   -0.8754 H   0  0
    3.7204   -1.0713   -2.1021 H   0  0
    5.6123    0.3424   -1.4942 H   0  0
  1  2  1  0  0  0
  2  3  2  0  0  0
  3  4  1  0  0  0
  4  5  2  0  0  0
  5 20  1  0  0  0
  5  6  1  0  0  0
  6  7  1  0  0  0
  7  8  1  0  0  0
  8 19  2  0  0  0
  8  9  1  0  0  0
  9 10  2  0  0  0
 10 11  1  0  0  0
 11 12  2  0  0  0
 12 17  1  0  0  0
 12 13  1  0  0  0
 13 16  1  0  0  0
 13 15  1  0  0  0
 13 14  1  0  0  0
 17 18  2  0  0  0
 18  9  1  0  0  0
 20 21  2  0  0  0
 21  2  1  0  0  0
  1 22  1  0  0  0
  1 23  1  0  0  0
  3 24  1  0  0  0
  4 25  1  0  0  0
  6 26  1  0  0  0
  6 27  1  0  0  0
  7 28  1  0  0  0
 10 29  1  0  0  0
 11 30  1  0  0  0
 14 31  1  0  0  0
 14 32  1  0  0  0
 14 33  1  0  0  0
 15 34  1  0  0  0
 15 35  1  0  0  0
 15 36  1  0  0  0
 16 37  1  0  0  0
 16 38  1  0  0  0
 16 39  1  0  0  0
 17 40  1  0  0  0
 18 41  1  0  0  0
 20 42  1  0  0  0
 21 43  1  0  0  0
M  END
> <pIC50>
5.456

$$$$
D2_04
  DSViewer          3D                             0

 46 47  0  0  0  0  0  0  0  0999 V2000
    6.0960    2.7495    1.5817 N   0  0
    6.5329    1.5021    0.4496 S   0  0
    5.1245    0.5091    0.1307 C   0  0
    3.9283    0.7548    0.7467 C   0  0
    2.7764   -0.0143    0.5606 C   0  0
    1.6137    0.3646    1.1650 F   0  0
    2.8661   -1.0807   -0.2934 C   0  0
    1.7998   -2.0582   -0.5433 C   0  0
    0.4694   -1.6023   -0.5084 N   0  0
   -0.3450   -1.5020    0.6929 C   0  0
   -1.7012   -0.9617    0.5275 C   0  0
   -1.9357    0.3959    0.4924 C   0  0
   -3.2136    0.9052    0.2421 C   0  0
   -4.2456    0.0246    0.0266 C   0  0
   -5.6181    0.4703   -0.3588 C   0  0
   -5.9686   -0.2999   -1.6562 C   0  0
   -6.6656    0.1396    0.6457 C   0  0
   -5.6153    1.9311   -0.7442 C   0  0
   -3.9782   -1.3340    0.0691 C   0  0
   -2.7174   -1.8594    0.3188 C   0  0
    0.0818   -1.8499    1.8000 O   0  0
    4.1019   -1.3346   -0.9335 C   0  0
    5.2204   -0.5669   -0.7388 C   0  0
    6.9373    2.1421   -0.8333 O   0  0
    7.6311    0.6968    1.0821 O   0  0
    5.1674    3.1738    1.3125 H   0  0
    6.0285    2.2832    2.5182 H   0  0
    3.8203    1.5948    1.4363 H   0  0
    1.9696   -2.4295   -1.6191 H   0  0
    1.9780   -2.9786    0.0705 H   0  0
   -0.0349   -1.2990   -1.4028 H   0  0
   -1.1416    1.1092    0.6360 H   0  0
   -3.3658    1.9678    0.2294 H   0  0
   -5.0165   -0.5235   -2.2031 H   0  0
   -6.6563    0.3466   -2.2261 H   0  0
   -6.5054   -1.2341   -1.4128 H   0  0
   -6.6634   -0.9706    0.7930 H   0  0
   -6.4964    0.5965    1.6183 H   0  0
   -7.6458    0.4639    0.2331 H   0  0
   -5.3838    2.5455    0.1161 H   0  0
   -6.6422    2.1775   -1.0986 H   0  0
   -4.8806    2.0508   -1.5891 H   0  0
   -4.7961   -2.0015   -0.1086 H   0  0
   -2.5475   -2.9326    0.3670 H   0  0
    4.1480   -2.1828   -1.5990 H   0  0
    6.1401   -0.7923   -1.2470 H   0  0
  1  2  1  0  0  0
  2 25  2  0  0  0
  2 24  2  0  0  0
  2  3  1  0  0  0
  3  4  2  0  0  0
  4  5  1  0  0  0
  5  7  2  0  0  0
  5  6  1  0  0  0
  7 22  1  0  0  0
  7  8  1  0  0  0
  8  9  1  0  0  0
  9 10  1  0  0  0
 10 21  2  0  0  0
 10 11  1  0  0  0
 11 12  2  0  0  0
 12 13  1  0  0  0
 13 14  2  0  0  0
 14 19  1  0  0  0
 14 15  1  0  0  0
 15 18  1  0  0  0
 15 17  1  0  0  0
 15 16  1  0  0  0
 19 20  2  0  0  0
 20 11  1  0  0  0
 22 23  2  0  0  0
 23  3  1  0  0  0
  1 26  1  0  0  0
  1 27  1  0  0  0
  4 28  1  0  0  0
  8 29  1  0  0  0
  8 30  1  0  0  0
  9 31  1  0  0  0
 12 32  1  0  0  0
 13 33  1  0  0  0
 16 34  1  0  0  0
 16 35  1  0  0  0
 16 36  1  0  0  0
 17 37  1  0  0  0
 17 38  1  0  0  0
 17 39  1  0  0  0
 18 40  1  0  0  0
 18 41  1  0  0  0
 18 42  1  0  0  0
 19 43  1  0  0  0
 20 44  1  0  0  0
 22 45  1  0  0  0
 23 46  1  0  0  0
M  END
> <pIC50>
6.863

$$$$
D2_09
  DSViewer          3D                             0

 46 47  0  0  0  0  0  0  0  0999 V2000
    7.4037    0.4032    2.4889 N   0  0
    6.5848    1.2229    1.2156 S   0  0
    5.1989    0.2399    0.7261 C   0  0
    5.3436   -0.7853   -0.1832 C   0  0
    4.2604   -1.5437   -0.5574 C   0  0
    2.9679   -1.3301   -0.0527 C   0  0
    1.8816   -2.2067   -0.5286 C   0  0
    0.5822   -1.6295   -0.6324 N   0  0
   -0.3728   -1.4771    0.4051 C   0  0
   -1.6860   -0.8768    0.2210 C   0  0
   -1.9459    0.3759   -0.2591 C   0  0
   -3.2376    0.8837   -0.4341 C   0  0
   -4.2877    0.0711   -0.1040 C   0  0
   -5.6840    0.5280   -0.2455 C   0  0
   -5.8124    2.0337   -0.3606 C   0  0
   -6.5341    0.1199    0.9546 C   0  0
   -6.2929   -0.1719   -1.4378 C   0  0
   -4.0655   -1.1958    0.3802 C   0  0
   -2.7820   -1.6786    0.5475 C   0  0
   -0.0164   -1.9132    1.5585 O   0  0
    2.8399   -0.3125    0.8439 C   0  0
    3.9392    0.4633    1.2294 C   0  0
    6.1294    2.5548    1.7167 O   0  0
    7.4596    1.4186    0.0185 O   0  0
    7.3343   -0.6345    2.3672 H   0  0
    8.4400    0.6153    2.3887 H   0  0
    6.3249   -0.9539   -0.5808 H   0  0
    4.3726   -2.3602   -1.2881 H   0  0
    2.1778   -2.7622   -1.4622 H   0  0
    1.7477   -3.0832    0.2027 H   0  0
    0.2714   -1.2619   -1.5822 H   0  0
   -1.1025    0.9935   -0.5097 H   0  0
   -3.3966    1.8851   -0.8201 H   0  0
   -5.3237    2.4137   -1.2691 H   0  0
   -6.9078    2.2710   -0.4896 H   0  0
   -5.5007    2.5382    0.5710 H   0  0
   -7.4695    0.7418    0.8378 H   0  0
   -6.0528    0.4756    1.8691 H   0  0
   -6.7620   -0.9722    0.9463 H   0  0
   -6.0150    0.3589   -2.3622 H   0  0
   -7.3907   -0.2511   -1.3892 H   0  0
   -5.9014   -1.2136   -1.4635 H   0  0
   -4.9420   -1.8176    0.6268 H   0  0
   -2.6406   -2.6732    0.9277 H   0  0
    1.8714   -0.0870    1.2757 H   0  0
    3.7750    1.2488    1.9408 H   0  0
  1  2  1  0  0  0
  2 24  2  0  0  0
  2 23  2  0  0  0
  2  3  1  0  0  0
  3  4  2  0  0  0
  4  5  1  0  0  0
  5  6  2  0  0  0
  6 21  1  0  0  0
  6  7  1  0  0  0
  7  8  1  0  0  0
  8  9  1  0  0  0
  9 20  2  0  0  0
  9 10  1  0  0  0
 10 11  2  0  0  0
 11 12  1  0  0  0
 12 13  2  0  0  0
 13 18  1  0  0  0
 13 14  1  0  0  0
 14 17  1  0  0  0
 14 16  1  0  0  0
 14 15  1  0  0  0
 18 19  2  0  0  0
 19 10  1  0  0  0
 21 22  2  0  0  0
 22  3  1  0  0  0
  1 25  1  0  0  0
  1 26  1  0  0  0
  4 27  1  0  0  0
  5 28  1  0  0  0
  7 29  1  0  0  0
  7 30  1  0  0  0
  8 31  1  0  0  0
 11 32  1  0  0  0
 12 33  1  0  0  0
 15 34  1  0  0  0
 15 35  1  0  0  0
 15 36  1  0  0  0
 16 37  1  0  0  0
 16 38  1  0  0  0
 16 39  1  0  0  0
 17 40  1  0  0  0
 17 41  1  0  0  0
 17 42  1  0  0  0
 18 43  1  0  0  0
 19 44  1  0  0  0
 21 45  1  0  0  0
 22 46  1  0  0  0
M  END
> <pIC50>
6.553

$$$$
D2_15
  DSViewer          3D                             0

 48 49  0  0  0  0  0  0  0  0999 V2000
    7.7944   -0.6902    0.6955 O   0  0
    7.7111    0.5412    1.0102 C   0  0
    8.9806    1.2773    1.3741 C   0  0
    8.9611    1.8037    2.6151 F   0  0
    9.0963    2.2909    0.4022 F   0  0
   10.0369    0.4246    1.1164 F   0  0
    6.4337    1.1425    0.9963 N   0  0
    5.2451    0.4607    0.6264 C   0  0
    5.3055   -0.5155   -0.3374 C   0  0
    4.2061   -1.2152   -0.7179 C   0  0
    2.9358   -0.9979   -0.1634 C   0  0
    1.8890   -1.8664   -0.6618 C   0  0
    0.5438   -1.4532   -0.7248 N   0  0
   -0.3977   -1.4160    0.3151 C   0  0
   -1.7925   -1.0167    0.2410 C   0  0
   -2.3042    0.1316   -0.2891 C   0  0
   -3.6804    0.3796   -0.3353 C   0  0
   -4.6050   -0.5208    0.1522 C   0  0
   -6.0299   -0.2114    0.0713 C   0  0
   -6.4466    0.9427    0.9694 C   0  0
   -6.9018   -1.4092    0.3809 C   0  0
   -6.3353    0.2058   -1.3737 C   0  0
   -4.0985   -1.6863    0.6918 C   0  0
   -2.7492   -1.9263    0.7360 C   0  0
    0.0196   -1.7823    1.4599 O   0  0
    2.8611   -0.0269    0.7981 C   0  0
    3.9995    0.6869    1.1824 C   0  0
    6.3494    2.1603    1.2873 H   0  0
    6.2632   -0.7314   -0.8507 H   0  0
    4.3444   -1.9826   -1.4924 H   0  0
    2.1738   -2.2540   -1.6755 H   0  0
    1.9812   -2.8199   -0.0293 H   0  0
    0.1573   -1.1184   -1.6698 H   0  0
   -1.5793    0.8593   -0.6901 H   0  0
   -4.0380    1.3197   -0.7721 H   0  0
   -7.5199    1.2005    0.7260 H   0  0
   -5.8506    1.8197    0.7671 H   0  0
   -6.4319    0.6518    2.0459 H   0  0
   -7.1938   -1.4764    1.4220 H   0  0
   -7.8653   -1.2512   -0.2003 H   0  0
   -6.5005   -2.3481   -0.0509 H   0  0
   -5.7811   -0.4154   -2.0968 H   0  0
   -7.4393    0.1156   -1.5600 H   0  0
   -6.1281    1.2940   -1.4360 H   0  0
   -4.8215   -2.3965    1.0852 H   0  0
   -2.3873   -2.8519    1.1642 H   0  0
    1.9009    0.1651    1.2572 H   0  0
    3.9369    1.4648    1.9558 H   0  0
  1  2  2  0  0  0
  2  7  1  0  0  0
  2  3  1  0  0  0
  3  6  1  0  0  0
  3  5  1  0  0  0
  3  4  1  0  0  0
  7  8  1  0  0  0
  8  9  2  0  0  0
  9 10  1  0  0  0
 10 11  2  0  0  0
 11 26  1  0  0  0
 11 12  1  0  0  0
 12 13  1  0  0  0
 13 14  1  0  0  0
 14 25  2  0  0  0
 14 15  1  0  0  0
 15 16  2  0  0  0
 16 17  1  0  0  0
 17 18  2  0  0  0
 18 23  1  0  0  0
 18 19  1  0  0  0
 19 22  1  0  0  0
 19 21  1  0  0  0
 19 20  1  0  0  0
 23 24  2  0  0  0
 24 15  1  0  0  0
 26 27  2  0  0  0
 27  8  1  0  0  0
  7 28  1  0  0  0
  9 29  1  0  0  0
 10 30  1  0  0  0
 12 31  1  0  0  0
 12 32  1  0  0  0
 13 33  1  0  0  0
 16 34  1  0  0  0
 17 35  1  0  0  0
 20 36  1  0  0  0
 20 37  1  0  0  0
 20 38  1  0  0  0
 21 39  1  0  0  0
 21 40  1  0  0  0
 21 41  1  0  0  0
 22 42  1  0  0  0
 22 43  1  0  0  0
 22 44  1  0  0  0
 23 45  1  0  0  0
 24 46  1  0  0  0
 26 47  1  0  0  0
 27 48  1  0  0  0
M  END
> <pIC50>
6.18

$$$$
D3_33
  DSViewer          3D                             0

 44 45  0  0  0  0  0  0  0  0999 V2000
    0.0147   -2.5656    1.1147 O   0  0
   -0.3705   -1.6352    0.4410 C   0  0
   -1.7100   -0.9872    0.4960 C   0  0
   -2.0190    0.1182   -0.2457 C   0  0
   -3.3113    0.5412   -0.5101 C   0  0
   -4.3800   -0.1494   -0.0250 C   0  0
   -5.7288    0.1538   -0.4665 C   0  0
   -6.3382   -0.5999   -1.3663 C   0  0
   -7.7839   -0.2420   -1.6632 C   0  0
   -7.9355    0.3992   -3.0264 C   0  0
   -5.7484   -1.7436   -1.9917 C   0  0
   -5.9826   -2.6882   -2.8496 O   0  5
   -4.4608   -1.8846   -1.4964 O   0  0
   -4.1140   -1.2792    0.7801 C   0  0
   -2.8241   -1.6619    1.0125 C   0  0
    0.5512   -1.1145   -0.4842 N   0  0
    1.7806   -1.3138   -0.9756 C   0  0
    3.0593   -1.6611   -0.4004 C   0  0
    3.3789   -2.9055    0.1250 C   0  0
    4.7149   -3.3158    0.3170 C   0  0
    5.7282   -2.4440   -0.0379 C   0  0
    5.4282   -1.2357   -0.5352 C   0  0
    4.1558   -0.8302   -0.7230 C   0  0
    3.7675    0.5451   -1.1184 C   0  0
    3.1515    0.6834   -2.3431 F   0  0
    3.0373    1.1578   -0.0866 F   0  0
    4.9321    1.3218   -1.2421 F   0  0
   -1.2415    0.7571   -0.6938 H   0  0
   -3.4150    1.4459   -1.1455 H   0  0
   -6.2600    1.0737   -0.0879 H   0  0
   -8.2470    0.3020   -0.8408 H   0  0
   -8.2973   -1.2240   -1.7002 H   0  0
   -8.9228    0.0995   -3.4236 H   0  0
   -7.9825    1.5265   -2.8367 H   0  0
   -7.2080    0.1731   -3.7334 H   0  0
   -4.9660   -1.7586    1.1881 H   0  0
   -2.6520   -2.5338    1.6704 H   0  0
    0.0907   -0.1793   -0.9544 H   0  0
    1.9426   -0.8838   -2.0580 H   0  0
    1.5503   -2.4650   -1.5351 H   0  0
    2.6050   -3.5973    0.3854 H   0  0
    4.9768   -4.2813    0.7149 H   0  0
    6.7874   -2.7658    0.0753 H   0  0
    6.2526   -0.5425   -0.7705 H   0  0
  1  2  2  0  0  0
  2 16  1  0  0  0
  2  3  1  0  0  0
  3  4  2  0  0  0
  4  5  1  0  0  0
  5  6  2  0  0  0
  6 14  1  0  0  0
  6  7  1  0  0  0
  7  8  2  0  0  0
  8 11  1  0  0  0
  8  9  1  0  0  0
  9 10  1  0  0  0
 11 13  2  0  0  0
 11 12  1  0  0  0
 14 15  2  0  0  0
 15  3  1  0  0  0
 16 17  1  0  0  0
 17 18  1  0  0  0
 18 19  2  0  0  0
 19 20  1  0  0  0
 20 21  2  0  0  0
 21 22  1  0  0  0
 22 23  2  0  0  0
 23 24  1  0  0  0
 23 18  1  0  0  0
 24 27  1  0  0  0
 24 26  1  0  0  0
 24 25  1  0  0  0
  4 28  1  0  0  0
  5 29  1  0  0  0
  7 30  1  0  0  0
  9 31  1  0  0  0
  9 32  1  0  0  0
 10 33  1  0  0  0
 10 34  1  0  0  0
 10 35  1  0  0  0
 14 36  1  0  0  0
 15 37  1  0  0  0
 16 38  1  0  0  0
 17 39  1  0  0  0
 17 40  1  0  0  0
 19 41  1  0  0  0
 20 42  1  0  0  0
 21 43  1  0  0  0
 22 44  1  0  0  0
M  CHG  1  12  -1
M  END
> <pIC50>
6.921

$$$$
D3_01
  DSViewer          3D                             0

 51 52  0  0  0  0  0  0  0  0999 V2000
   -0.0618   -2.1530    1.4832 O   0  0
   -0.3373   -1.6219    0.3195 C   0  0
   -1.6094   -0.9741    0.2638 C   0  0
   -2.7702   -1.6990    0.3632 C   0  0
   -3.9619   -1.0382    0.5803 C   0  0
   -4.0429    0.3665    0.7036 C   0  0
   -5.3297    0.8858    1.1203 C   0  0
   -6.4345    0.7708    0.4613 C   0  0
   -7.7490    1.1484    1.1826 C   0  0
   -8.3663   -0.2499    1.4291 C   0  0
   -6.5868    0.1434   -0.8198 C   0  0
   -5.6530   -0.3980   -1.6354 O   0  0
   -5.9925   -0.9582   -2.8795 C   0  0
   -6.6112    0.0799   -3.7667 C   0  0
   -7.7943    0.0866   -1.2754 O   0  0
   -2.8884    1.0486    0.5856 C   0  0
   -1.6858    0.4278    0.3697 C   0  0
    0.6644   -1.7674   -0.6264 N   0  0
    1.9559   -2.3732   -0.2098 C   0  0
    2.8784   -2.0508   -1.2927 C   0  0
    2.8146   -2.5437   -2.5585 C   0  0
    3.7400   -2.1875   -3.5210 C   0  0
    4.7491   -1.2992   -3.1959 C   0  0
    4.7911   -0.8163   -1.9166 C   0  0
    3.8971   -1.1562   -0.9377 C   0  0
    4.0323   -0.5797    0.3952 C   0  0
    2.9395   -0.3411    1.1413 F   0  0
    4.8138   -1.5614    1.1109 F   0  0
    4.9373    0.5024    0.3871 F   0  0
   -2.7868   -2.7927    0.2946 H   0  0
   -4.8600   -1.6087    0.6780 H   0  0
   -5.4026    1.4291    2.0928 H   0  0
   -7.5764    1.6040    2.1506 H   0  0
   -8.3395    1.7350    0.4919 H   0  0
   -8.3205   -0.4969    2.4863 H   0  0
   -9.3260   -0.3116    0.9204 H   0  0
   -7.7212   -1.0309    0.9339 H   0  0
   -6.7382   -1.8012   -2.7736 H   0  0
   -5.0978   -1.4370   -3.3637 H   0  0
   -6.7793   -0.3325   -4.8003 H   0  0
   -7.6126    0.3271   -3.4036 H   0  0
   -5.9583    0.9795   -3.8357 H   0  0
   -2.9339    2.1601    0.6590 H   0  0
   -0.7716    0.9666    0.2631 H   0  0
    0.5213   -1.4735   -1.5890 H   0  0
    2.2363   -2.2437    0.7993 H   0  0
    1.7312   -3.4849   -0.3181 H   0  0
    2.0043   -3.2675   -2.7823 H   0  0
    3.6437   -2.6068   -4.5082 H   0  0
    5.4251   -1.0461   -3.9625 H   0  0
    5.5892   -0.1004   -1.6877 H   0  0
  1  2  2  0  0  0
  2 18  1  0  0  0
  2  3  1  0  0  0
  3  4  2  0  0  0
  4  5  1  0  0  0
  5  6  2  0  0  0
  6 16  1  0  0  0
  6  7  1  0  0  0
  7  8  2  0  0  0
  8 11  1  0  0  0
  8  9  1  0  0  0
  9 10  1  0  0  0
 11 15  2  0  0  0
 11 12  1  0  0  0
 12 13  1  0  0  0
 13 14  1  0  0  0
 16 17  2  0  0  0
 17  3  1  0  0  0
 18 19  1  0  0  0
 19 20  1  0  0  0
 20 21  2  0  0  0
 21 22  1  0  0  0
 22 23  2  0  0  0
 23 24  1  0  0  0
 24 25  2  0  0  0
 25 26  1  0  0  0
 25 20  1  0  0  0
 26 29  1  0  0  0
 26 28  1  0  0  0
 26 27  1  0  0  0
  4 30  1  0  0  0
  5 31  1  0  0  0
  7 32  1  0  0  0
  9 33  1  0  0  0
  9 34  1  0  0  0
 10 35  1  0  0  0
 10 36  1  0  0  0
 10 37  1  0  0  0
 13 38  1  0  0  0
 13 39  1  0  0  0
 14 40  1  0  0  0
 14 41  1  0  0  0
 14 42  1  0  0  0
 16 43  1  0  0  0
 17 44  1  0  0  0
 18 45  1  0  0  0
 19 46  1  0  0  0
 19 47  1  0  0  0
 21 48  1  0  0  0
 22 49  1  0  0  0
 23 50  1  0  0  0
 24 51  1  0  0  0
M  END
> <pIC50>
7.201

$$$$
D3_35
  DSViewer          3D                             0

 47 48  0  0  0  0  0  0  0  0999 V2000
   -2.0676   -1.7784    0.9256 O   0  0
   -1.4321   -0.7920    0.4877 C   0  0
   -0.0066   -0.8657    0.1953 C   0  0
    0.4728   -1.0909   -1.0800 C   0  0
    1.8127   -1.1392   -1.3471 C   0  0
    2.8106   -0.9652   -0.3602 C   0  0
    4.1735   -1.1704   -0.7677 C   0  0
    5.1974   -0.4926   -0.3692 C   0  0
    5.2035    0.6059    0.5286 C   0  0
    6.4603    1.1767    0.8988 N   0  0
    6.5001    2.3172    1.8199 C   0  0
    7.6558    0.7457    0.4549 O   0  0
    8.0561   -0.4188    1.0643 C   0  0
    4.2127    1.1243    1.0267 O   0  0
    2.3140   -0.7471    0.8901 C   0  0
    0.9400   -0.6951    1.1752 C   0  0
   -2.0955    0.4406    0.2619 N   0  0
   -3.4894    0.6807    0.4877 C   0  0
   -4.3050   -0.1013   -0.4663 C   0  0
   -3.7491   -0.8748   -1.4360 C   0  0
   -4.5254   -1.5952   -2.3546 C   0  0
   -5.8938   -1.5244   -2.2829 C   0  0
   -6.4674   -0.7410   -1.3017 C   0  0
   -5.7093   -0.0339   -0.4000 C   0  0
   -6.2913    0.8106    0.6579 C   0  0
   -6.0159    0.3297    1.9284 F   0  0
   -5.9455    2.1403    0.5425 F   0  0
   -7.6724    0.7305    0.5264 F   0  0
   -0.2695   -1.2246   -1.8529 H   0  0
    2.1780   -1.3199   -2.3719 H   0  0
    4.3741   -2.0149   -1.5133 H   0  0
    6.1977   -0.8430   -0.8078 H   0  0
    5.4854    2.4468    2.2732 H   0  0
    7.1508    2.0009    2.6604 H   0  0
    6.8558    3.2129    1.3025 H   0  0
    8.9925   -0.3266    1.6614 H   0  0
    7.2960   -0.8631    1.7294 H   0  0
    8.3354   -1.1373    0.2375 H   0  0
    2.9770   -0.6828    1.7353 H   0  0
    0.5897   -0.5188    2.1817 H   0  0
   -1.4942    1.2347   -0.1042 H   0  0
   -3.7558    0.3867    1.5361 H   0  0
   -3.6709    1.7765    0.3802 H   0  0
   -2.6915   -0.9566   -1.5531 H   0  0
   -4.0684   -2.2066   -3.1176 H   0  0
   -6.5525   -2.0540   -2.9585 H   0  0
   -7.5372   -0.6892   -1.2469 H   0  0
  1  2  2  0  0  0
  2 17  1  0  0  0
  2  3  1  0  0  0
  3  4  2  0  0  0
  4  5  1  0  0  0
  5  6  2  0  0  0
  6 15  1  0  0  0
  6  7  1  0  0  0
  7  8  2  0  0  0
  8  9  1  0  0  0
  9 14  2  0  0  0
  9 10  1  0  0  0
 10 12  1  0  0  0
 10 11  1  0  0  0
 12 13  1  0  0  0
 15 16  2  0  0  0
 16  3  1  0  0  0
 17 18  1  0  0  0
 18 19  1  0  0  0
 19 20  2  0  0  0
 20 21  1  0  0  0
 21 22  2  0  0  0
 22 23  1  0  0  0
 23 24  2  0  0  0
 24 25  1  0  0  0
 24 19  1  0  0  0
 25 28  1  0  0  0
 25 27  1  0  0  0
 25 26  1  0  0  0
  4 29  1  0  0  0
  5 30  1  0  0  0
  7 31  1  0  0  0
  8 32  1  0  0  0
 11 33  1  0  0  0
 11 34  1  0  0  0
 11 35  1  0  0  0
 13 36  1  0  0  0
 13 37  1  0  0  0
 13 38  1  0  0  0
 15 39  1  0  0  0
 16 40  1  0  0  0
 17 41  1  0  0  0
 18 42  1  0  0  0
 18 43  1  0  0  0
 20 44  1  0  0  0
 21 45  1  0  0  0
 22 46  1  0  0  0
 23 47  1  0  0  0
M  END
> <pIC50>
7.155

$$$$
D1_05
  DSViewer          3D                             0

 49 50  0  0  0  0  0  0  0  0999 V2000
    0.3131   -1.3628    1.5251 O   0  0
   -0.2219   -1.2414    0.4131 C   0  0
   -1.5903   -0.7660    0.2499 C   0  0
   -2.6111   -1.4635    0.9023 C   0  0
   -3.9315   -1.1447    0.8212 C   0  0
   -4.3123   -0.0463    0.0361 C   0  0
   -5.7279    0.3394   -0.0801 C   0  0
   -6.3209   -0.1604   -1.3870 C   0  0
   -5.9087    1.8435   -0.0474 C   0  0
   -6.5658   -0.2342    1.0446 C   0  0
   -3.3358    0.6649   -0.6214 C   0  0
   -1.9849    0.3036   -0.5116 C   0  0
    0.5066   -1.5839   -0.7619 N   0  0
    1.8420   -2.0831   -0.8006 C   0  0
    2.9193   -1.2047   -0.3386 C   0  0
    4.1975   -1.7132   -0.3879 C   0  0
    4.3981   -3.3507   -0.9722 Cl  0  0
    5.2824   -0.9453    0.0049 C   0  0
    5.1186    0.3332    0.4494 C   0  0
    6.1717    1.1549    0.8848 N   0  0
    7.7942    0.8170    1.1972 S   0  0
    8.4920    1.9948    1.8757 O   0  0
    8.7424    0.2830   -0.1773 C   0  0
    8.7045    1.2242   -1.2197 F   0  0
   10.1253    0.2589    0.2282 F   0  0
    8.5163   -0.9382   -0.6490 F   0  0
    7.9172   -0.3063    2.2454 O   0  0
    3.7959    0.8104    0.4845 C   0  0
    2.7248    0.0538    0.0983 C   0  0
   -2.3272   -2.3139    1.5088 H   0  0
   -4.7162   -1.7044    1.3350 H   0  0
   -6.1005   -1.2503   -1.5093 H   0  0
   -7.4396   -0.0526   -1.3180 H   0  0
   -6.0159    0.4261   -2.2553 H   0  0
   -6.5583    2.1598    0.8138 H   0  0
   -6.3807    2.2314   -0.9514 H   0  0
   -4.9469    2.3701    0.1004 H   0  0
   -7.4930    0.3547    1.2031 H   0  0
   -6.0478   -0.3245    1.9943 H   0  0
   -6.9121   -1.2576    0.7294 H   0  0
   -3.5805    1.5335   -1.2483 H   0  0
   -1.2122    0.8578   -1.0217 H   0  0
    0.0230   -1.4538   -1.7042 H   0  0
    2.0884   -2.4102   -1.8599 H   0  0
    1.8902   -3.0717   -0.2372 H   0  0
    6.2410   -1.4280   -0.0431 H   0  0
    5.8955    2.1942    1.0425 H   0  0
    3.6728    1.8277    0.8429 H   0  0
    1.7250    0.5071    0.1549 H   0  0
  1  2  2  0  0  0
  2 13  1  0  0  0
  2  3  1  0  0  0
  3  4  2  0  0  0
  4  5  1  0  0  0
  5  6  2  0  0  0
  6 11  1  0  0  0
  6  7  1  0  0  0
  7 10  1  0  0  0
  7  9  1  0  0  0
  7  8  1  0  0  0
 11 12  2  0  0  0
 12  3  1  0  0  0
 13 14  1  0  0  0
 14 15  1  0  0  0
 15 16  2  0  0  0
 16 18  1  0  0  0
 16 17  1  0  0  0
 18 19  2  0  0  0
 19 28  1  0  0  0
 19 20  1  0  0  0
 20 21  1  0  0  0
 21 27  2  0  0  0
 21 23  1  0  0  0
 21 22  2  0  0  0
 23 26  1  0  0  0
 23 25  1  0  0  0
 23 24  1  0  0  0
 28 29  2  0  0  0
 29 15  1  0  0  0
  4 30  1  0  0  0
  5 31  1  0  0  0
  8 32  1  0  0  0
  8 33  1  0  0  0
  8 34  1  0  0  0
  9 35  1  0  0  0
  9 36  1  0  0  0
  9 37  1  0  0  0
 10 38  1  0  0  0
 10 39  1  0  0  0
 10 40  1  0  0  0
 11 41  1  0  0  0
 12 42  1  0  0  0
 13 43  1  0  0  0
 14 44  1  0  0  0
 14 45  1  0  0  0
 18 46  1  0  0  0
 20 47  1  0  0  0
 28 48  1  0  0  0
 29 49  1  0  0  0
M  END
> <pIC50>
7.678

$$$$
D1_08
  DSViewer          3D                             0

 49 50  0  0  0  0  0  0  0  0999 V2000
    0.1069   -1.9783    1.3887 O   0  0
   -0.3096   -1.4993    0.3148 C   0  0
   -1.6753   -0.9847    0.2028 C   0  0
   -2.7045   -1.4819    0.9813 C   0  0
   -4.0164   -1.0191    0.8884 C   0  0
   -4.3085   -0.0257   -0.0126 C   0  0
   -5.7029    0.4670   -0.1142 C   0  0
   -6.3615   -0.2102   -1.2774 C   0  0
   -6.4100    0.1129    1.1792 C   0  0
   -5.7825    1.9770   -0.2220 C   0  0
   -3.2985    0.4919   -0.7988 C   0  0
   -2.0023    0.0167   -0.6941 C   0  0
    0.5745   -1.4699   -0.7981 N   0  0
    1.9065   -1.9066   -0.8685 C   0  0
    2.9794   -1.1130   -0.2406 C   0  0
    4.2888   -1.6670   -0.2935 C   0  0
    4.4969   -3.2723   -0.9391 Cl  0  0
    5.3470   -0.9321    0.1770 C   0  0
    5.1566    0.3107    0.6878 C   0  0
    6.2258    1.0872    1.1679 N   0  0
    7.5278    1.4565    0.0919 S   0  0
    8.3359   -0.0104   -0.4401 C   0  0
    6.8678    2.1034   -1.1460 O   0  0
    8.4829    2.4539    0.6716 O   0  0
    3.8804    0.8343    0.7377 C   0  0
    2.7700    0.1273    0.2705 C   0  0
    1.2183    0.8993    0.3384 Cl  0  0
   -2.4757   -2.2780    1.6849 H   0  0
   -4.7846   -1.4682    1.5267 H   0  0
   -6.2926   -1.2934   -1.0925 H   0  0
   -7.4139    0.1434   -1.3821 H   0  0
   -5.7327    0.0546   -2.2060 H   0  0
   -5.7049    0.2176    2.0609 H   0  0
   -7.2785    0.8180    1.3507 H   0  0
   -6.7709   -0.9201    1.1614 H   0  0
   -6.7876    2.1928   -0.6902 H   0  0
   -5.0552    2.4281   -0.8775 H   0  0
   -5.8368    2.4402    0.7888 H   0  0
   -3.5279    1.2945   -1.5291 H   0  0
   -1.2190    0.4319   -1.3205 H   0  0
    0.0934   -1.0542   -1.6800 H   0  0
    2.2116   -1.9855   -1.9674 H   0  0
    2.0489   -2.9671   -0.5131 H   0  0
    6.3234   -1.4307    0.1302 H   0  0
    6.3019    1.4617    2.1507 H   0  0
    9.3179    0.2856   -0.9477 H   0  0
    8.5307   -0.6806    0.3801 H   0  0
    7.7928   -0.5186   -1.3087 H   0  0
    3.6977    1.8315    1.1448 H   0  0
  1  2  2  0  0  0
  2 13  1  0  0  0
  2  3  1  0  0  0
  3  4  2  0  0  0
  4  5  1  0  0  0
  5  6  2  0  0  0
  6 11  1  0  0  0
  6  7  1  0  0  0
  7 10  1  0  0  0
  7  9  1  0  0  0
  7  8  1  0  0  0
 11 12  2  0  0  0
 12  3  1  0  0  0
 13 14  1  0  0  0
 14 15  1  0  0  0
 15 16  2  0  0  0
 16 18  1  0  0  0
 16 17  1  0  0  0
 18 19  2  0  0  0
 19 25  1  0  0  0
 19 20  1  0  0  0
 20 21  1  0  0  0
 21 24  2  0  0  0
 21 23  2  0  0  0
 21 22  1  0  0  0
 25 26  2  0  0  0
 26 27  1  0  0  0
 26 15  1  0  0  0
  4 28  1  0  0  0
  5 29  1  0  0  0
  8 30  1  0  0  0
  8 31  1  0  0  0
  8 32  1  0  0  0
  9 33  1  0  0  0
  9 34  1  0  0  0
  9 35  1  0  0  0
 10 36  1  0  0  0
 10 37  1  0  0  0
 10 38  1  0  0  0
 11 39  1  0  0  0
 12 40  1  0  0  0
 13 41  1  0  0  0
 14 42  1  0  0  0
 14 43  1  0  0  0
 18 44  1  0  0  0
 20 45  1  0  0  0
 22 46  1  0  0  0
 22 47  1  0  0  0
 22 48  1  0  0  0
 25 49  1  0  0  0
M  END
> <pIC50>
6.572

$$$$
D1_04
  DSViewer          3D                             0

 53 55  0  0  0  0  0  0  0  0999 V2000
    0.3325   -1.5091    1.5188 O   0  0
   -0.1628   -1.3684    0.3806 C   0  0
   -1.5154   -0.8258    0.2720 C   0  0
   -1.7799    0.4965   -0.0194 C   0  0
   -3.0795    0.9709   -0.1342 C   0  0
   -4.1600    0.1365    0.0385 C   0  0
   -5.5824    0.5664   -0.0888 C   0  0
   -6.3287    0.1071    1.1268 C   0  0
   -6.2263   -0.1773   -1.2767 C   0  0
   -5.7586    2.0236   -0.3451 C   0  0
   -3.9037   -1.1877    0.3313 C   0  0
   -2.6019   -1.6560    0.4449 C   0  0
    0.5943   -1.7350   -0.7668 N   0  0
    1.9153   -2.2598   -0.7682 C   0  0
    2.9735   -1.3569   -0.2825 C   0  0
    4.2619   -1.8390   -0.2520 C   0  0
    4.5968   -3.4756   -0.7581 Cl  0  0
    5.2872   -0.9896    0.1888 C   0  0
    5.0114    0.2848    0.5771 C   0  0
    5.9989    1.1468    1.0586 N   0  0
    7.3653    1.6077    0.1470 S   0  0
    8.3660    0.2344   -0.2878 C   0  0
    9.2219   -0.3326    0.7885 C   0  0
    9.8353    0.4589   -0.3401 C   0  0
    6.9531    2.3258   -1.1246 O   0  0
    8.1488    2.6233    0.9591 O   0  0
    3.6998    0.7348    0.5331 C   0  0
    2.6552   -0.0778    0.1020 C   0  0
   -0.9132    1.1266   -0.1490 H   0  0
   -3.2499    1.9992   -0.3589 H   0  0
   -7.0019    0.9434    1.4272 H   0  0
   -5.6683   -0.0733    1.9979 H   0  0
   -6.9016   -0.8359    0.9653 H   0  0
   -7.1337    0.3409   -1.5689 H   0  0
   -5.4925   -0.1152   -2.1343 H   0  0
   -6.3491   -1.2402   -1.0489 H   0  0
   -5.0735    2.3721   -1.1537 H   0  0
   -5.7418    2.6573    0.5383 H   0  0
   -6.7879    2.1444   -0.8003 H   0  0
   -4.7603   -1.8504    0.4707 H   0  0
   -2.4624   -2.7122    0.6790 H   0  0
    0.0582   -1.5716   -1.6790 H   0  0
    2.0122   -3.2175   -0.1976 H   0  0
    2.1799   -2.5382   -1.8120 H   0  0
    6.2541   -1.4474    0.2047 H   0  0
    5.8493    1.5134    2.0544 H   0  0
    7.9161   -0.5103   -0.9674 H   0  0
    9.3554   -1.4345    0.8039 H   0  0
    9.1732    0.1625    1.7903 H   0  0
   10.3733   -0.1458   -1.1164 H   0  0
   10.1913    1.4795   -0.1213 H   0  0
    3.4139    1.7431    0.8320 H   0  0
    1.6540    0.3278    0.0791 H   0  0
  1  2  2  0  0  0
  2 13  1  0  0  0
  2  3  1  0  0  0
  3  4  2  0  0  0
  4  5  1  0  0  0
  5  6  2  0  0  0
  6 11  1  0  0  0
  6  7  1  0  0  0
  7 10  1  0  0  0
  7  9  1  0  0  0
  7  8  1  0  0  0
 11 12  2  0  0  0
 12  3  1  0  0  0
 13 14  1  0  0  0
 14 15  1  0  0  0
 15 16  2  0  0  0
 16 18  1  0  0  0
 16 17  1  0  0  0
 18 19  2  0  0  0
 19 27  1  0  0  0
 19 20  1  0  0  0
 20 21  1  0  0  0
 21 26  2  0  0  0
 21 25  2  0  0  0
 21 22  1  0  0  0
 22 23  1  0  0  0
 23 24  1  0  0  0
 24 22  1  0  0  0
 27 28  2  0  0  0
 28 15  1  0  0  0
  4 29  1  0  0  0
  5 30  1  0  0  0
  8 31  1  0  0  0
  8 32  1  0  0  0
  8 33  1  0  0  0
  9 34  1  0  0  0
  9 35  1  0  0  0
  9 36  1  0  0  0
 10 37  1  0  0  0
 10 38  1  0  0  0
 10 39  1  0  0  0
 11 40  1  0  0  0
 12 41  1  0  0  0
 13 42  1  0  0  0
 14 43  1  0  0  0
 14 44  1  0  0  0
 18 45  1  0  0  0
 20 46  1  0  0  0
 22 47  1  0  0  0
 23 48  1  0  0  0
 23 49  1  0  0  0
 24 50  1  0  0  0
 24 51  1  0  0  0
 27 52  1  0  0  0
 28 53  1  0  0  0
M  END
> <pIC50>
8.108

$$$$
D1_06
  DSViewer          3D                             0

 49 50  0  0  0  0  0  0  0  0999 V2000
    0.4287   -1.5769    1.5548 O   0  0
   -0.1763   -1.4025    0.4720 C   0  0
   -1.5541   -0.9528    0.4139 C   0  0
   -2.5369   -1.9238    0.3493 C   0  0
   -3.8813   -1.5860    0.2777 C   0  0
   -4.2669   -0.2513    0.2686 C   0  0
   -5.7209    0.0198    0.1865 C   0  0
   -6.4214   -1.0643    1.0199 C   0  0
   -6.0961    1.3864    0.7117 C   0  0
   -6.2515   -0.1224   -1.2243 C   0  0
   -3.2904    0.7216    0.3331 C   0  0
   -1.9424    0.3562    0.4058 C   0  0
    0.5306   -1.6655   -0.7650 N   0  0
    1.8681   -2.1157   -0.8582 C   0  0
    2.9272   -1.2260   -0.3576 C   0  0
    4.2406   -1.7079   -0.4520 C   0  0
    4.4956   -2.9292   -0.9874 F   0  0
    5.2855   -0.9418    0.0065 C   0  0
    5.0487    0.2750    0.5458 C   0  0
    6.0388    1.1228    1.0631 N   0  0
    7.4563    1.5289    0.2298 S   0  0
    8.4333    0.1015   -0.0949 C   0  0
    7.1262    2.2110   -1.0914 O   0  0
    8.2341    2.5500    1.0304 O   0  0
    3.7341    0.7869    0.6522 C   0  0
    2.7127   -0.0019    0.1866 C   0  0
   -2.2357   -2.9765    0.3602 H   0  0
   -4.6568   -2.3622    0.2317 H   0  0
   -5.7591   -1.4440    1.8281 H   0  0
   -6.6617   -1.9378    0.3783 H   0  0
   -7.3592   -0.6335    1.4191 H   0  0
   -5.7201    1.5340    1.7505 H   0  0
   -7.2282    1.4112    0.6846 H   0  0
   -5.6943    2.1770    0.0781 H   0  0
   -5.8259    0.6714   -1.8295 H   0  0
   -6.1146   -1.1444   -1.6424 H   0  0
   -7.3538    0.0687   -1.1539 H   0  0
   -3.5664    1.7604    0.3258 H   0  0
   -1.1572    1.1081    0.4549 H   0  0
   -0.0677   -1.4825   -1.6332 H   0  0
    2.0016   -3.1259   -0.3388 H   0  0
    2.0483   -2.3925   -1.9343 H   0  0
    6.3140   -1.3330   -0.0583 H   0  0
    5.8694    1.5099    2.0349 H   0  0
    8.3736   -0.6091    0.7322 H   0  0
    8.1310   -0.2988   -1.0890 H   0  0
    9.5140    0.4208   -0.2563 H   0  0
    3.5466    1.7678    1.0775 H   0  0
    1.6791    0.4202    0.2646 H   0  0
  1  2  2  0  0  0
  2 13  1  0  0  0
  2  3  1  0  0  0
  3  4  2  0  0  0
  4  5  1  0  0  0
  5  6  2  0  0  0
  6 11  1  0  0  0
  6  7  1  0  0  0
  7 10  1  0  0  0
  7  9  1  0  0  0
  7  8  1  0  0  0
 11 12  2  0  0  0
 12  3  1  0  0  0
 13 14  1  0  0  0
 14 15  1  0  0  0
 15 16  2  0  0  0
 16 18  1  0  0  0
 16 17  1  0  0  0
 18 19  2  0  0  0
 19 25  1  0  0  0
 19 20  1  0  0  0
 20 21  1  0  0  0
 21 24  2  0  0  0
 21 23  2  0  0  0
 21 22  1  0  0  0
 25 26  2  0  0  0
 26 15  1  0  0  0
  4 27  1  0  0  0
  5 28  1  0  0  0
  8 29  1  0  0  0
  8 30  1  0  0  0
  8 31  1  0  0  0
  9 32  1  0  0  0
  9 33  1  0  0  0
  9 34  1  0  0  0
 10 35  1  0  0  0
 10 36  1  0  0  0
 10 37  1  0  0  0
 11 38  1  0  0  0
 12 39  1  0  0  0
 13 40  1  0  0  0
 14 41  1  0  0  0
 14 42  1  0  0  0
 18 43  1  0  0  0
 20 44  1  0  0  0
 22 45  1  0  0  0
 22 46  1  0  0  0
 22 47  1  0  0  0
 25 48  1  0  0  0
 26 49  1  0  0  0
M  END
> <pIC50>
7.796

$$$$
D1_07
  DSViewer          3D                             0

 49 50  0  0  0  0  0  0  0  0999 V2000
    0.3687   -1.6222    1.5516 O   0  0
   -0.1510   -1.4337    0.4357 C   0  0
   -1.4925   -0.9091    0.3379 C   0  0
   -1.8475    0.4043    0.5650 C   0  0
   -3.1349    0.8821    0.4796 C   0  0
   -4.1431    0.0152    0.1498 C   0  0
   -5.5291    0.5093    0.0579 C   0  0
   -6.4956   -0.6184   -0.2522 C   0  0
   -5.7219    1.5786   -0.9878 C   0  0
   -5.8803    1.0721    1.4239 C   0  0
   -3.8381   -1.3057   -0.0863 C   0  0
   -2.5413   -1.7753    0.0018 C   0  0
    0.5622   -1.7300   -0.7717 N   0  0
    1.8858   -2.2460   -0.7836 C   0  0
    2.9050   -1.3125   -0.3198 C   0  0
    4.2127   -1.7629   -0.2080 C   0  0
    4.4485   -3.0644   -0.5211 F   0  0
    5.2230   -0.9232    0.2011 C   0  0
    4.9270    0.3884    0.5046 C   0  0
    5.9818    1.2564    0.9501 N   0  0
    7.4949    1.2971    0.1524 S   0  0
    7.2309    1.8255   -1.5276 C   0  0
    8.1827   -0.0411    0.1615 O   0  0
    8.4079    2.2635    0.8566 O   0  0
    3.6460    0.8693    0.4037 C   0  0
    2.6429   -0.0094   -0.0155 C   0  0
    1.4118    0.5729   -0.1315 F   0  0
   -1.0305    1.0875    0.8295 H   0  0
   -3.2768    1.9498    0.6841 H   0  0
   -7.5040   -0.1822   -0.2497 H   0  0
   -6.4139   -1.4170    0.5198 H   0  0
   -6.2776   -0.9795   -1.2613 H   0  0
   -6.8337    1.6596   -1.1579 H   0  0
   -5.3454    2.5724   -0.6697 H   0  0
   -5.2528    1.2903   -1.9466 H   0  0
   -5.3387    2.0418    1.5722 H   0  0
   -5.4647    0.3700    2.1679 H   0  0
   -6.9656    1.1509    1.5938 H   0  0
   -4.6208   -2.0374   -0.3543 H   0  0
   -2.2780   -2.8038   -0.1794 H   0  0
    0.0498   -1.5441   -1.6785 H   0  0
    1.9007   -3.2141   -0.2106 H   0  0
    2.1558   -2.4867   -1.8599 H   0  0
    6.2307   -1.3146    0.2766 H   0  0
    5.7916    1.8605    1.7759 H   0  0
    6.4794    2.6425   -1.5095 H   0  0
    6.8160    0.9989   -2.1243 H   0  0
    8.1637    2.2240   -1.9643 H   0  0
    3.4362    1.9151    0.6493 H   0  0
  1  2  2  0  0  0
  2 13  1  0  0  0
  2  3  1  0  0  0
  3  4  2  0  0  0
  4  5  1  0  0  0
  5  6  2  0  0  0
  6 11  1  0  0  0
  6  7  1  0  0  0
  7 10  1  0  0  0
  7  9  1  0  0  0
  7  8  1  0  0  0
 11 12  2  0  0  0
 12  3  1  0  0  0
 13 14  1  0  0  0
 14 15  1  0  0  0
 15 16  2  0  0  0
 16 18  1  0  0  0
 16 17  1  0  0  0
 18 19  2  0  0  0
 19 25  1  0  0  0
 19 20  1  0  0  0
 20 21  1  0  0  0
 21 24  2  0  0  0
 21 23  2  0  0  0
 21 22  1  0  0  0
 25 26  2  0  0  0
 26 27  1  0  0  0
 26 15  1  0  0  0
  4 28  1  0  0  0
  5 29  1  0  0  0
  8 30  1  0  0  0
  8 31  1  0  0  0
  8 32  1  0  0  0
  9 33  1  0  0  0
  9 34  1  0  0  0
  9 35  1  0  0  0
 10 36  1  0  0  0
 10 37  1  0  0  0
 10 38  1  0  0  0
 11 39  1  0  0  0
 12 40  1  0  0  0
 13 41  1  0  0  0
 14 42  1  0  0  0
 14 43  1  0  0  0
 18 44  1  0  0  0
 20 45  1  0  0  0
 22 46  1  0  0  0
 22 47  1  0  0  0
 22 48  1  0  0  0
 25 49  1  0  0  0
M  END
> <pIC50>
7.071

$$$$
D2_17
  DSViewer          3D                             0

 42 43  0  0  0  0  0  0  0  0999 V2000
    0.1829   -2.2309    1.4753 O   0  0
   -0.3426   -1.5914    0.5385 C   0  0
   -1.6796   -1.0117    0.5541 C   0  0
   -1.8106    0.2769    0.0776 C   0  0
   -3.0543    0.8870   -0.0357 C   0  0
   -4.1955    0.1757    0.3425 C   0  0
   -5.4737    0.8986    0.1267 C   0  0
   -5.6078    2.0438    1.0956 C   0  0
   -6.6875    0.0400    0.1751 C   0  0
   -5.4151    1.5218   -1.2931 C   0  0
   -4.0689   -1.0865    0.8136 C   0  0
   -2.8079   -1.6957    0.9248 C   0  0
    0.4534   -1.4270   -0.6465 N   0  0
    1.7499   -1.8922   -0.9209 C   0  0
    2.8886   -1.1484   -0.3693 C   0  0
    2.8346   -0.2710    0.6974 C   0  0
    3.9870    0.4132    1.1033 C   0  0
    5.1826    0.2499    0.4871 C   0  0
    6.4094    0.9667    0.8764 C   0  0
    7.3798    1.5103    1.1826 N   0  0
    5.2660   -0.6422   -0.6048 C   0  0
    4.1185   -1.3008   -0.9872 C   0  0
   -0.9459    0.8660   -0.2228 H   0  0
   -3.1022    1.8912   -0.4062 H   0  0
   -6.6308    1.9960    1.5823 H   0  0
   -4.8494    2.0054    1.8916 H   0  0
   -5.6342    3.0364    0.5630 H   0  0
   -7.5721    0.7192    0.3067 H   0  0
   -6.6639   -0.6411    1.0246 H   0  0
   -6.8212   -0.5736   -0.7508 H   0  0
   -6.4184    1.6156   -1.7243 H   0  0
   -4.8598    2.4681   -1.2460 H   0  0
   -4.8244    0.7871   -1.9011 H   0  0
   -4.9372   -1.6304    1.1049 H   0  0
   -2.7818   -2.7050    1.3007 H   0  0
   -0.0315   -0.8755   -1.4077 H   0  0
    1.8618   -1.8988   -2.0751 H   0  0
    1.7975   -3.0075   -0.7174 H   0  0
    1.8992   -0.0976    1.2227 H   0  0
    3.9195    1.1157    1.9532 H   0  0
    6.2376   -0.7512   -1.0547 H   0  0
    4.1822   -1.9846   -1.8504 H   0  0
  1  2  2  0  0  0
  2 13  1  0  0  0
  2  3  1  0  0  0
  3  4  2  0  0  0
  4  5  1  0  0  0
  5  6  2  0  0  0
  6 11  1  0  0  0
  6  7  1  0  0  0
  7 10  1  0  0  0
  7  9  1  0  0  0
  7  8  1  0  0  0
 11 12  2  0  0  0
 12  3  1  0  0  0
 13 14  1  0  0  0
 14 15  1  0  0  0
 15 16  2  0  0  0
 16 17  1  0  0  0
 17 18  2  0  0  0
 18 21  1  0  0  0
 18 19  1  0  0  0
 19 20  3  0  0  0
 21 22  2  0  0  0
 22 15  1  0  0  0
  4 23  1  0  0  0
  5 24  1  0  0  0
  8 25  1  0  0  0
  8 26  1  0  0  0
  8 27  1  0  0  0
  9 28  1  0  0  0
  9 29  1  0  0  0
  9 30  1  0  0  0
 10 31  1  0  0  0
 10 32  1  0  0  0
 10 33  1  0  0  0
 11 34  1  0  0  0
 12 35  1  0  0  0
 13 36  1  0  0  0
 14 37  1  0  0  0
 14 38  1  0  0  0
 16 39  1  0  0  0
 17 40  1  0  0  0
 21 41  1  0  0  0
 22 42  1  0  0  0
M  END
> <pIC50>
6.041

$$$$
D2_12
  DSViewer          3D                             0

 43 44  0  0  0  0  0  0  0  0999 V2000
   -0.0255   -1.6136    1.7399 O   0  0
   -0.4069   -1.2650    0.5870 C   0  0
   -1.7383   -0.7531    0.3539 C   0  0
   -2.7926   -1.6489    0.6251 C   0  0
   -4.0883   -1.2953    0.4028 C   0  0
   -4.3315   -0.0250   -0.0987 C   0  0
   -5.7590    0.2776   -0.3816 C   0  0
   -6.0414    1.6642   -0.8300 C   0  0
   -6.1448   -0.6673   -1.5195 C   0  0
   -6.5829   -0.0697    0.8300 C   0  0
   -3.3458    0.8771   -0.3734 C   0  0
   -2.0174    0.4844   -0.1335 C   0  0
    0.4609   -1.3727   -0.5633 N   0  0
    1.7491   -1.9053   -0.4973 C   0  0
    2.9245   -1.1475   -0.1086 C   0  0
    4.0258   -1.0727   -1.0083 C   0  0
    5.1775   -0.4212   -0.6646 C   0  0
    5.3660    0.2050    0.5536 C   0  0
    6.6334    0.8878    0.8799 C   0  0
    6.8797    1.4560    1.9640 O   0  0
    4.3118    0.1451    1.4339 C   0  0
    3.1223   -0.5218    1.0940 C   0  0
   -2.5580   -2.6163    1.0215 H   0  0
   -4.8960   -1.9683    0.6165 H   0  0
   -5.8005    2.4668   -0.1304 H   0  0
   -7.1569    1.7312   -0.9967 H   0  0
   -5.5343    1.8932   -1.7959 H   0  0
   -5.8935   -1.7064   -1.1965 H   0  0
   -5.5663   -0.4008   -2.4097 H   0  0
   -7.2426   -0.6721   -1.6670 H   0  0
   -6.0181    0.1797    1.7310 H   0  0
   -7.5498    0.4950    0.8393 H   0  0
   -6.8357   -1.1515    0.7468 H   0  0
   -3.5215    1.8651   -0.7589 H   0  0
   -1.2484    1.2095   -0.3603 H   0  0
    0.0611   -0.9984   -1.5021 H   0  0
    1.9488   -2.3444   -1.5551 H   0  0
    1.7098   -2.9063    0.0886 H   0  0
    3.8979   -1.5715   -1.9640 H   0  0
    6.0165   -0.3732   -1.3617 H   0  0
    7.3984    0.8896    0.1190 H   0  0
    4.3816    0.6176    2.3916 H   0  0
    2.3260   -0.5376    1.8338 H   0  0
  1  2  2  0  0  0
  2 13  1  0  0  0
  2  3  1  0  0  0
  3  4  2  0  0  0
  4  5  1  0  0  0
  5  6  2  0  0  0
  6 11  1  0  0  0
  6  7  1  0  0  0
  7 10  1  0  0  0
  7  9  1  0  0  0
  7  8  1  0  0  0
 11 12  2  0  0  0
 12  3  1  0  0  0
 13 14  1  0  0  0
 14 15  1  0  0  0
 15 16  2  0  0  0
 16 17  1  0  0  0
 17 18  2  0  0  0
 18 21  1  0  0  0
 18 19  1  0  0  0
 19 20  2  0  0  0
 21 22  2  0  0  0
 22 15  1  0  0  0
  4 23  1  0  0  0
  5 24  1  0  0  0
  8 25  1  0  0  0
  8 26  1  0  0  0
  8 27  1  0  0  0
  9 28  1  0  0  0
  9 29  1  0  0  0
  9 30  1  0  0  0
 10 31  1  0  0  0
 10 32  1  0  0  0
 10 33  1  0  0  0
 11 34  1  0  0  0
 12 35  1  0  0  0
 13 36  1  0  0  0
 14 37  1  0  0  0
 14 38  1  0  0  0
 16 39  1  0  0  0
 17 40  1  0  0  0
 19 41  1  0  0  0
 21 42  1  0  0  0
 22 43  1  0  0  0
M  END
> <pIC50>
6.292

$$$$
D2_36
  DSViewer          3D                             0

 46 47  0  0  0  0  0  0  0  0999 V2000
    0.1184   -1.4470    1.6293 O   0  0
   -0.2759   -1.3122    0.3997 C   0  0
   -1.6099   -0.8155    0.1646 C   0  0
   -1.9577    0.3703   -0.4192 C   0  0
   -3.2965    0.7642   -0.5747 C   0  0
   -4.3239   -0.0227   -0.1505 C   0  0
   -5.7478    0.3837   -0.2763 C   0  0
   -6.4939    0.1618    1.0135 C   0  0
   -6.4089   -0.4307   -1.3690 C   0  0
   -5.8469    1.8163   -0.7071 C   0  0
   -3.9888   -1.2372    0.4449 C   0  0
   -2.6812   -1.6198    0.5972 C   0  0
    0.6889   -1.6847   -0.5484 N   0  0
    1.9955   -2.1816   -0.1953 C   0  0
    3.0004   -1.1778    0.1463 C   0  0
    3.3069   -0.7260    1.4015 C   0  0
    4.3346    0.1942    1.5544 C   0  0
    5.0565    0.6693    0.4864 C   0  0
    6.1896    1.6213    0.5939 C   0  0
    7.4381    0.7820    0.7485 C   0  0
    8.6936    1.3060    0.8421 O   0  5
    7.3038   -0.4988    0.7930 O   0  0
    4.7598    0.2264   -0.7988 C   0  0
    3.7492   -0.6751   -0.9332 C   0  0
   -1.1704    1.0136   -0.7623 H   0  0
   -3.5173    1.7323   -1.0471 H   0  0
   -6.5267   -0.9353    1.2285 H   0  0
   -7.5535    0.4603    0.8610 H   0  0
   -6.0325    0.7187    1.8675 H   0  0
   -7.4839   -0.2003   -1.4575 H   0  0
   -5.8542   -0.1743   -2.3095 H   0  0
   -6.1957   -1.4922   -1.1733 H   0  0
   -6.9546    1.9853   -0.9039 H   0  0
   -5.3941    1.9378   -1.7150 H   0  0
   -5.5152    2.5361    0.0402 H   0  0
   -4.8041   -1.8737    0.7882 H   0  0
   -2.4135   -2.5837    1.0706 H   0  0
    0.4120   -1.5894   -1.5581 H   0  0
    2.3664   -2.7847   -1.0505 H   0  0
    1.8534   -2.9218    0.6448 H   0  0
    2.7429   -1.1011    2.2492 H   0  0
    4.5759    0.5456    2.5547 H   0  0
    6.1224    2.2690    1.4968 H   0  0
    6.3196    2.1738   -0.3386 H   0  0
    5.2905    0.5684   -1.6692 H   0  0
    3.5156   -1.0157   -1.9564 H   0  0
  1  2  2  0  0  0
  2 13  1  0  0  0
  2  3  1  0  0  0
  3  4  2  0  0  0
  4  5  1  0  0  0
  5  6  2  0  0  0
  6 11  1  0  0  0
  6  7  1  0  0  0
  7 10  1  0  0  0
  7  9  1  0  0  0
  7  8  1  0  0  0
 11 12  2  0  0  0
 12  3  1  0  0  0
 13 14  1  0  0  0
 14 15  1  0  0  0
 15 16  2  0  0  0
 16 17  1  0  0  0
 17 18  2  0  0  0
 18 23  1  0  0  0
 18 19  1  0  0  0
 19 20  1  0  0  0
 20 22  2  0  0  0
 20 21  1  0  0  0
 23 24  2  0  0  0
 24 15  1  0  0  0
  4 25  1  0  0  0
  5 26  1  0  0  0
  8 27  1  0  0  0
  8 28  1  0  0  0
  8 29  1  0  0  0
  9 30  1  0  0  0
  9 31  1  0  0  0
  9 32  1  0  0  0
 10 33  1  0  0  0
 10 34  1  0  0  0
 10 35  1  0  0  0
 11 36  1  0  0  0
 12 37  1  0  0  0
 13 38  1  0  0  0
 14 39  1  0  0  0
 14 40  1  0  0  0
 16 41  1  0  0  0
 17 42  1  0  0  0
 19 43  1  0  0  0
 19 44  1  0  0  0
 23 45  1  0  0  0
 24 46  1  0  0  0
M  CHG  1  21  -1
M  END
> <pIC50>
4.699

$$$$
D2_22
  DSViewer          3D                             0

 49 50  0  0  0  0  0  0  0  0999 V2000
   -0.0181   -1.7678    1.4822 O   0  0
   -0.3423   -1.4131    0.3302 C   0  0
   -1.6828   -0.8777    0.1599 C   0  0
   -2.0608    0.0804   -0.7396 C   0  0
   -3.3537    0.5457   -0.8919 C   0  0
   -4.3535    0.0305   -0.0988 C   0  0
   -5.7782    0.4368   -0.1722 C   0  0
   -6.3397    0.5770    1.2134 C   0  0
   -6.4830   -0.6487   -0.9769 C   0  0
   -5.9067    1.7181   -0.9777 C   0  0
   -3.9946   -0.9425    0.8209 C   0  0
   -2.7184   -1.3896    0.9611 C   0  0
    0.5631   -1.5442   -0.7243 N   0  0
    1.8564   -2.0899   -0.4916 C   0  0
    2.9542   -1.2374   -0.0337 C   0  0
    4.0040   -0.9333   -0.9426 C   0  0
    5.0937   -0.1875   -0.5780 C   0  0
    5.2434    0.3207    0.6969 C   0  0
    6.4755    1.0876    1.1044 C   0  0
    7.3789    0.0268    1.7418 C   0  0
    8.6623    0.5388    2.2168 C   0  0
    8.8168    0.9758    3.5222 O   0  5
    9.6663    0.5923    1.4185 O   0  0
    4.2445    0.0463    1.5964 C   0  0
    3.1257   -0.7234    1.2165 C   0  0
   -1.2842    0.5146   -1.3923 H   0  0
   -3.6197    1.3080   -1.6155 H   0  0
   -5.5859    0.3566    2.0136 H   0  0
   -6.7393    1.6214    1.3087 H   0  0
   -7.1376   -0.1612    1.3180 H   0  0
   -6.6505   -1.4969   -0.3071 H   0  0
   -7.3982   -0.1972   -1.3871 H   0  0
   -5.7657   -0.9463   -1.7856 H   0  0
   -5.1303    2.4557   -0.6817 H   0  0
   -5.7271    1.4304   -2.0271 H   0  0
   -6.9535    2.0847   -0.8025 H   0  0
   -4.7364   -1.4039    1.4944 H   0  0
   -2.4229   -2.1578    1.6780 H   0  0
    0.2875   -1.2351   -1.7100 H   0  0
    1.7556   -2.9883    0.2339 H   0  0
    2.1322   -2.6544   -1.4438 H   0  0
    3.8827   -1.3472   -1.9583 H   0  0
    5.8841    0.0404   -1.2972 H   0  0
    6.1983    1.8019    1.8652 H   0  0
    6.9526    1.4990    0.1891 H   0  0
    6.8024   -0.3135    2.6678 H   0  0
    7.4439   -0.8935    1.1302 H   0  0
    4.3257    0.4244    2.6107 H   0  0
    2.3678   -0.9234    1.9813 H   0  0
  1  2  2  0  0  0
  2 13  1  0  0  0
  2  3  1  0  0  0
  3  4  2  0  0  0
  4  5  1  0  0  0
  5  6  2  0  0  0
  6 11  1  0  0  0
  6  7  1  0  0  0
  7 10  1  0  0  0
  7  9  1  0  0  0
  7  8  1  0  0  0
 11 12  2  0  0  0
 12  3  1  0  0  0
 13 14  1  0  0  0
 14 15  1  0  0  0
 15 16  2  0  0  0
 16 17  1  0  0  0
 17 18  2  0  0  0
 18 24  1  0  0  0
 18 19  1  0  0  0
 19 20  1  0  0  0
 20 21  1  0  0  0
 21 23  2  0  0  0
 21 22  1  0  0  0
 24 25  2  0  0  0
 25 15  1  0  0  0
  4 26  1  0  0  0
  5 27  1  0  0  0
  8 28  1  0  0  0
  8 29  1  0  0  0
  8 30  1  0  0  0
  9 31  1  0  0  0
  9 32  1  0  0  0
  9 33  1  0  0  0
 10 34  1  0  0  0
 10 35  1  0  0  0
 10 36  1  0  0  0
 11 37  1  0  0  0
 12 38  1  0  0  0
 13 39  1  0  0  0
 14 40  1  0  0  0
 14 41  1  0  0  0
 16 42  1  0  0  0
 17 43  1  0  0  0
 19 44  1  0  0  0
 19 45  1  0  0  0
 20 46  1  0  0  0
 20 47  1  0  0  0
 24 48  1  0  0  0
 25 49  1  0  0  0
M  CHG  1  22  -1
M  END
> <pIC50>
5.788

$$$$
D2_07
  DSViewer          3D                             0

 45 46  0  0  0  0  0  0  0  0999 V2000
    0.0789   -1.6497    1.6614 O   0  0
   -0.2671   -1.4081    0.4893 C   0  0
   -1.5870   -0.8709    0.2518 C   0  0
   -2.6763   -1.5536    0.7755 C   0  0
   -3.9814   -1.1365    0.6146 C   0  0
   -4.1698    0.0442   -0.1220 C   0  0
   -5.5873    0.4613   -0.2716 C   0  0
   -5.7337    1.7856   -0.9777 C   0  0
   -6.2047    0.5416    1.1081 C   0  0
   -6.2804   -0.6041   -1.1179 C   0  0
   -3.1113    0.7333   -0.6471 C   0  0
   -1.8275    0.2776   -0.4614 C   0  0
    0.6085   -1.6559   -0.5952 N   0  0
    1.9303   -2.1899   -0.4918 C   0  0
    2.9930   -1.2549   -0.1151 C   0  0
    3.2824   -0.9378    1.1841 C   0  0
    4.3356   -0.0543    1.4541 C   0  0
    5.1076    0.5225    0.4870 C   0  0
    6.1724    1.4116    0.7543 O   0  0
    7.4294    0.7068    0.9199 C   0  0
    7.6638    0.0053   -0.2708 F   0  0
    7.3036   -0.1104    1.9993 F   0  0
    8.4712    1.6265    1.0917 F   0  0
    4.8135    0.2001   -0.8385 C   0  0
    3.7853   -0.6622   -1.1177 C   0  0
   -2.4771   -2.4716    1.3467 H   0  0
   -4.8250   -1.6855    1.0323 H   0  0
   -5.5380    1.7083   -2.0660 H   0  0
   -6.7971    2.1199   -0.8005 H   0  0
   -5.0970    2.5710   -0.5006 H   0  0
   -5.4206    0.8354    1.8500 H   0  0
   -6.6015   -0.4316    1.4609 H   0  0
   -6.9827    1.3392    1.1458 H   0  0
   -6.3109   -1.5712   -0.5458 H   0  0
   -5.7298   -0.7866   -2.0377 H   0  0
   -7.2989   -0.2357   -1.3559 H   0  0
   -3.2736    1.6296   -1.2089 H   0  0
   -0.9659    0.8146   -0.8781 H   0  0
    0.2113   -1.4121   -1.5510 H   0  0
    1.9566   -3.1224    0.1502 H   0  0
    2.1929   -2.6098   -1.5150 H   0  0
    2.7248   -1.3501    2.0083 H   0  0
    4.5280    0.1736    2.4962 H   0  0
    5.4079    0.6430   -1.6347 H   0  0
    3.5239   -0.9371   -2.1430 H   0  0
  1  2  2  0  0  0
  2 13  1  0  0  0
  2  3  1  0  0  0
  3  4  2  0  0  0
  4  5  1  0  0  0
  5  6  2  0  0  0
  6 11  1  0  0  0
  6  7  1  0  0  0
  7 10  1  0  0  0
  7  9  1  0  0  0
  7  8  1  0  0  0
 11 12  2  0  0  0
 12  3  1  0  0  0
 13 14  1  0  0  0
 14 15  1  0  0  0
 15 16  2  0  0  0
 16 17  1  0  0  0
 17 18  2  0  0  0
 18 24  1  0  0  0
 18 19  1  0  0  0
 19 20  1  0  0  0
 20 23  1  0  0  0
 20 22  1  0  0  0
 20 21  1  0  0  0
 24 25  2  0  0  0
 25 15  1  0  0  0
  4 26  1  0  0  0
  5 27  1  0  0  0
  8 28  1  0  0  0
  8 29  1  0  0  0
  8 30  1  0  0  0
  9 31  1  0  0  0
  9 32  1  0  0  0
  9 33  1  0  0  0
 10 34  1  0  0  0
 10 35  1  0  0  0
 10 36  1  0  0  0
 11 37  1  0  0  0
 12 38  1  0  0  0
 13 39  1  0  0  0
 14 40  1  0  0  0
 14 41  1  0  0  0
 16 42  1  0  0  0
 17 43  1  0  0  0
 24 44  1  0  0  0
 25 45  1  0  0  0
M  END
> <pIC50>
6.658

$$$$
D2_11
  DSViewer          3D                             0

 45 46  0  0  0  0  0  0  0  0999 V2000
    0.0055   -2.0208    1.6734 O   0  0
   -0.4182   -1.4903    0.6630 C   0  0
   -1.7327   -0.9709    0.4322 C   0  0
   -1.9594    0.3412    0.1792 C   0  0
   -3.2472    0.8176   -0.1146 C   0  0
   -4.3336   -0.0184   -0.1590 C   0  0
   -5.6969    0.3893   -0.4854 C   0  0
   -6.4172   -0.6342   -1.3052 C   0  0
   -6.4488    0.4991    0.8575 C   0  0
   -5.8368    1.7079   -1.2078 C   0  0
   -4.1028   -1.3725    0.1023 C   0  0
   -2.8245   -1.8166    0.3907 C   0  0
    0.4973   -1.3782   -0.4682 N   0  0
    1.8085   -1.8295   -0.5722 C   0  0
    2.9219   -1.0268   -0.1497 C   0  0
    3.0439   -0.4292    1.0655 C   0  0
    4.2007    0.2402    1.4212 C   0  0
    5.2952    0.3231    0.5427 C   0  0
    6.4860    0.9575    0.8055 O   0  0
    6.7481    1.5917    2.0119 C   0  0
    5.1458   -0.2886   -0.6750 C   0  0
    4.0242   -0.9437   -1.0466 C   0  0
   -1.1395    1.0617    0.2080 H   0  0
   -3.3090    1.8871   -0.3001 H   0  0
   -7.3070   -1.0084   -0.7819 H   0  0
   -5.7176   -1.4299   -1.6490 H   0  0
   -6.8118   -0.1953   -2.2650 H   0  0
   -7.3934    1.0145    0.6762 H   0  0
   -5.7813    1.0701    1.5619 H   0  0
   -6.5713   -0.5077    1.2602 H   0  0
   -5.0372    2.4236   -1.1050 H   0  0
   -6.0430    1.5707   -2.3155 H   0  0
   -6.7581    2.2075   -0.8160 H   0  0
   -4.8875   -2.1042    0.0854 H   0  0
   -2.6412   -2.8802    0.5966 H   0  0
    0.0808   -0.8488   -1.3306 H   0  0
    1.8621   -2.7936    0.0617 H   0  0
    1.9874   -2.2503   -1.6409 H   0  0
    2.2167   -0.4640    1.7886 H   0  0
    4.3046    0.7299    2.3774 H   0  0
    7.8625    1.7915    2.0951 H   0  0
    6.2839    2.5799    2.0752 H   0  0
    6.4679    0.9836    2.8929 H   0  0
    6.0060   -0.2221   -1.3825 H   0  0
    3.8855   -1.4352   -1.9976 H   0  0
  1  2  2  0  0  0
  2 13  1  0  0  0
  2  3  1  0  0  0
  3  4  2  0  0  0
  4  5  1  0  0  0
  5  6  2  0  0  0
  6 11  1  0  0  0
  6  7  1  0  0  0
  7 10  1  0  0  0
  7  9  1  0  0  0
  7  8  1  0  0  0
 11 12  2  0  0  0
 12  3  1  0  0  0
 13 14  1  0  0  0
 14 15  1  0  0  0
 15 16  2  0  0  0
 16 17  1  0  0  0
 17 18  2  0  0  0
 18 21  1  0  0  0
 18 19  1  0  0  0
 19 20  1  0  0  0
 21 22  2  0  0  0
 22 15  1  0  0  0
  4 23  1  0  0  0
  5 24  1  0  0  0
  8 25  1  0  0  0
  8 26  1  0  0  0
  8 27  1  0  0  0
  9 28  1  0  0  0
  9 29  1  0  0  0
  9 30  1  0  0  0
 10 31  1  0  0  0
 10 32  1  0  0  0
 10 33  1  0  0  0
 11 34  1  0  0  0
 12 35  1  0  0  0
 13 36  1  0  0  0
 14 37  1  0  0  0
 14 38  1  0  0  0
 16 39  1  0  0  0
 17 40  1  0  0  0
 20 41  1  0  0  0
 20 42  1  0  0  0
 20 43  1  0  0  0
 21 44  1  0  0  0
 22 45  1  0  0  0
M  END
> <pIC50>
6.367

$$$$
D2_35
  DSViewer          3D                             0

 47 48  0  0  0  0  0  0  0  0999 V2000
    0.1747   -1.8495    1.5930 O   0  0
   -0.3334   -1.4077    0.5578 C   0  0
   -1.7257   -0.9556    0.4310 C   0  0
   -2.7781   -1.7101    0.8902 C   0  0
   -4.0881   -1.2739    0.6561 C   0  0
   -4.3382   -0.1049   -0.0241 C   0  0
   -5.7401    0.2646   -0.3055 C   0  0
   -6.3029   -0.7139   -1.3725 C   0  0
   -5.8842    1.6414   -0.8969 C   0  0
   -6.6662    0.1693    0.8736 C   0  0
   -3.2909    0.6441   -0.4725 C   0  0
   -2.0019    0.2131   -0.2401 C   0  0
    0.4550   -1.3152   -0.6485 N   0  0
    1.7844   -1.7202   -0.7911 C   0  0
    2.8802   -0.9114   -0.2652 C   0  0
    4.1477   -1.2211   -0.7845 C   0  0
    5.2959   -0.6047   -0.4097 C   0  0
    5.2426    0.4165    0.5715 C   0  0
    6.4139    0.9858    0.9082 O   0  0
    6.6190    1.9963    1.8338 C   0  0
    8.1287    2.2446    1.8948 C   0  0
    9.0442    1.5509    1.2597 O   0  5
    8.3639    3.2593    2.6735 O   0  0
    3.9970    0.7073    1.0652 C   0  0
    2.8430    0.0737    0.6709 C   0  0
   -2.5634   -2.6365    1.4294 H   0  0
   -4.9019   -1.8933    1.0268 H   0  0
   -6.6144   -1.6541   -0.8628 H   0  0
   -5.5907   -0.8553   -2.1961 H   0  0
   -7.2226   -0.2152   -1.7386 H   0  0
   -6.9736    1.8020   -1.0345 H   0  0
   -5.4111    1.6166   -1.9022 H   0  0
   -5.5160    2.4355   -0.2560 H   0  0
   -6.2078    0.5855    1.8008 H   0  0
   -7.6229    0.6953    0.6324 H   0  0
   -6.9524   -0.9269    0.9964 H   0  0
   -3.4663    1.5525   -1.0001 H   0  0
   -1.1788    0.8043   -0.5825 H   0  0
   -0.0561   -0.9051   -1.5016 H   0  0
    2.0048   -1.8485   -1.9012 H   0  0
    1.9234   -2.7947   -0.4146 H   0  0
    4.2453   -2.0067   -1.5470 H   0  0
    6.2752   -0.8315   -0.8236 H   0  0
    6.3740    1.6773    2.8778 H   0  0
    6.1323    2.9298    1.5446 H   0  0
    3.9065    1.5002    1.8297 H   0  0
    1.8655    0.3431    1.1073 H   0  0
  1  2  2  0  0  0
  2 13  1  0  0  0
  2  3  1  0  0  0
  3  4  2  0  0  0
  4  5  1  0  0  0
  5  6  2  0  0  0
  6 11  1  0  0  0
  6  7  1  0  0  0
  7 10  1  0  0  0
  7  9  1  0  0  0
  7  8  1  0  0  0
 11 12  2  0  0  0
 12  3  1  0  0  0
 13 14  1  0  0  0
 14 15  1  0  0  0
 15 16  2  0  0  0
 16 17  1  0  0  0
 17 18  2  0  0  0
 18 24  1  0  0  0
 18 19  1  0  0  0
 19 20  1  0  0  0
 20 21  1  0  0  0
 21 23  2  0  0  0
 21 22  1  0  0  0
 24 25  2  0  0  0
 25 15  1  0  0  0
  4 26  1  0  0  0
  5 27  1  0  0  0
  8 28  1  0  0  0
  8 29  1  0  0  0
  8 30  1  0  0  0
  9 31  1  0  0  0
  9 32  1  0  0  0
  9 33  1  0  0  0
 10 34  1  0  0  0
 10 35  1  0  0  0
 10 36  1  0  0  0
 11 37  1  0  0  0
 12 38  1  0  0  0
 13 39  1  0  0  0
 14 40  1  0  0  0
 14 41  1  0  0  0
 16 42  1  0  0  0
 17 43  1  0  0  0
 20 44  1  0  0  0
 20 45  1  0  0  0
 24 46  1  0  0  0
 25 47  1  0  0  0
M  CHG  1  22  -1
M  END
> <pIC50>
4.721

$$$$
D2_10
  DSViewer          3D                             0

 45 46  0  0  0  0  0  0  0  0999 V2000
    0.0511   -1.5746    1.7345 O   0  0
   -0.3215   -1.4290    0.5513 C   0  0
   -1.6463   -0.8977    0.2987 C   0  0
   -1.8399    0.2662   -0.3935 C   0  0
   -3.1325    0.7550   -0.6307 C   0  0
   -4.2033    0.0673   -0.1707 C   0  0
   -5.6015    0.5101   -0.3711 C   0  0
   -6.3972   -0.0047    0.8368 C   0  0
   -5.8015    1.9837   -0.4242 C   0  0
   -6.2229   -0.1743   -1.5866 C   0  0
   -4.0114   -1.1301    0.5419 C   0  0
   -2.7376   -1.5930    0.7655 C   0  0
    0.5280   -1.7791   -0.5062 N   0  0
    1.8364   -2.3073   -0.2848 C   0  0
    2.8703   -1.2823   -0.0504 C   0  0
    3.1601   -0.6921    1.1511 C   0  0
    4.1826    0.2572    1.3015 C   0  0
    4.9497    0.6404    0.2315 C   0  0
    6.2750    1.8413    0.3792 S   0  0
    7.8183    0.9793    0.8313 C   0  0
    8.1994    0.1638   -0.2123 F   0  0
    8.8156    1.8935    1.0821 F   0  0
    7.6131    0.1590    1.9415 F   0  0
    4.6667    0.0527   -0.9835 C   0  0
    3.6682   -0.8761   -1.1424 C   0  0
   -0.9949    0.8554   -0.7829 H   0  0
   -3.2756    1.6755   -1.1779 H   0  0
   -5.7166    0.0441    1.7155 H   0  0
   -6.8110   -0.9941    0.6317 H   0  0
   -7.2109    0.7433    1.0498 H   0  0
   -5.0621    2.5699   -0.9592 H   0  0
   -6.8081    2.1994   -0.9000 H   0  0
   -5.9075    2.4343    0.6002 H   0  0
   -7.1278   -0.7394   -1.3377 H   0  0
   -5.4988   -0.8788   -2.0738 H   0  0
   -6.5096    0.6193   -2.3025 H   0  0
   -4.8822   -1.6904    0.9176 H   0  0
   -2.5489   -2.5190    1.3109 H   0  0
    0.1977   -1.6470   -1.5030 H   0  0
    2.1064   -2.9689   -1.1564 H   0  0
    1.8072   -3.0506    0.5809 H   0  0
    2.5999   -0.9600    2.0185 H   0  0
    4.4010    0.7167    2.2602 H   0  0
    5.2879    0.3682   -1.8334 H   0  0
    3.4606   -1.3290   -2.0949 H   0  0
  1  2  2  0  0  0
  2 13  1  0  0  0
  2  3  1  0  0  0
  3  4  2  0  0  0
  4  5  1  0  0  0
  5  6  2  0  0  0
  6 11  1  0  0  0
  6  7  1  0  0  0
  7 10  1  0  0  0
  7  9  1  0  0  0
  7  8  1  0  0  0
 11 12  2  0  0  0
 12  3  1  0  0  0
 13 14  1  0  0  0
 14 15  1  0  0  0
 15 16  2  0  0  0
 16 17  1  0  0  0
 17 18  2  0  0  0
 18 24  1  0  0  0
 18 19  1  0  0  0
 19 20  1  0  0  0
 20 23  1  0  0  0
 20 22  1  0  0  0
 20 21  1  0  0  0
 24 25  2  0  0  0
 25 15  1  0  0  0
  4 26  1  0  0  0
  5 27  1  0  0  0
  8 28  1  0  0  0
  8 29  1  0  0  0
  8 30  1  0  0  0
  9 31  1  0  0  0
  9 32  1  0  0  0
  9 33  1  0  0  0
 10 34  1  0  0  0
 10 35  1  0  0  0
 10 36  1  0  0  0
 11 37  1  0  0  0
 12 38  1  0  0  0
 13 39  1  0  0  0
 14 40  1  0  0  0
 14 41  1  0  0  0
 16 42  1  0  0  0
 17 43  1  0  0  0
 24 44  1  0  0  0
 25 45  1  0  0  0
M  END
> <pIC50>
6.409

$$$$
D1_21
  DSViewer          3D                             0

 47 48  0  0  0  0  0  0  0  0999 V2000
   -0.0180   -1.7282    1.9364 O   0  0
   -0.3447   -1.5085    0.7817 C   0  0
   -1.7055   -1.0566    0.4466 C   0  0
   -2.1399    0.2009    0.6831 C   0  0
   -3.4629    0.5613    0.3860 C   0  0
   -4.3666   -0.3161   -0.1502 C   0  0
   -5.7666    0.0826   -0.3551 C   0  0
   -6.2242    1.1423    0.6240 C   0  0
   -6.4991   -1.1235    0.0284 O   0  0
   -6.2157    0.3936   -1.6971 C   0  0
   -3.8974   -1.5851   -0.3954 C   0  0
   -2.6347   -1.9704   -0.1251 C   0  0
    0.5291   -1.6525   -0.3180 N   0  0
    1.8486   -2.0191   -0.5480 C   0  0
    2.8909   -1.1328   -0.1028 C   0  0
    3.8909   -0.9000   -1.0651 C   0  0
    3.6259   -1.4853   -2.7292 Cl  0  0
    4.9864   -0.1925   -0.7940 C   0  0
    5.2326    0.3648    0.4650 C   0  0
    6.3573    1.1909    0.5905 N   0  0
    7.2407    1.3992    2.0574 S   0  0
    6.1838    2.1291    3.2965 C   0  0
    7.7903    0.0777    2.4830 O   0  0
    8.3755    2.3827    1.7718 O   0  0
    4.2358    0.1259    1.4175 C   0  0
    3.0981   -0.6072    1.1235 C   0  0
   -1.4739    0.9581    1.1491 H   0  0
   -3.7970    1.6093    0.5558 H   0  0
   -5.7306    2.1129    0.5244 H   0  0
   -6.0029    0.7732    1.6486 H   0  0
   -7.3139    1.3105    0.4862 H   0  0
   -7.3761   -0.7562    0.3768 H   0  0
   -7.2166    0.9597   -1.5642 H   0  0
   -5.5684    0.9974   -2.3159 H   0  0
   -6.5785   -0.4990   -2.2807 H   0  0
   -4.6119   -2.3096   -0.8552 H   0  0
   -2.2690   -2.9948   -0.3653 H   0  0
    0.0041   -1.3169   -1.2773 H   0  0
    1.9775   -2.9871    0.1885 H   0  0
    1.9615   -2.5013   -1.5380 H   0  0
    5.6788   -0.0080   -1.6518 H   0  0
    6.7403    1.7060   -0.2417 H   0  0
    5.2550    2.4994    2.8478 H   0  0
    6.6912    3.0441    3.7238 H   0  0
    6.0664    1.4466    4.1296 H   0  0
    4.4356    0.4889    2.4081 H   0  0
    2.4181   -0.7490    1.9393 H   0  0
  1  2  2  0  0  0
  2 13  1  0  0  0
  2  3  1  0  0  0
  3  4  2  0  0  0
  4  5  1  0  0  0
  5  6  2  0  0  0
  6 11  1  0  0  0
  6  7  1  0  0  0
  7 10  1  0  0  0
  7  9  1  0  0  0
  7  8  1  0  0  0
 11 12  2  0  0  0
 12  3  1  0  0  0
 13 14  1  0  0  0
 14 15  1  0  0  0
 15 16  2  0  0  0
 16 18  1  0  0  0
 16 17  1  0  0  0
 18 19  2  0  0  0
 19 25  1  0  0  0
 19 20  1  0  0  0
 20 21  1  0  0  0
 21 24  2  0  0  0
 21 23  2  0  0  0
 21 22  1  0  0  0
 25 26  2  0  0  0
 26 15  1  0  0  0
  4 27  1  0  0  0
  5 28  1  0  0  0
  8 29  1  0  0  0
  8 30  1  0  0  0
  8 31  1  0  0  0
  9 32  1  0  0  0
 10 33  1  0  0  0
 10 34  1  0  0  0
 10 35  1  0  0  0
 11 36  1  0  0  0
 12 37  1  0  0  0
 13 38  1  0  0  0
 14 39  1  0  0  0
 14 40  1  0  0  0
 18 41  1  0  0  0
 20 42  1  0  0  0
 22 43  1  0  0  0
 22 44  1  0  0  0
 22 45  1  0  0  0
 25 46  1  0  0  0
 26 47  1  0  0  0
M  END
> <pIC50>
6.77

$$$$
D1_22
  DSViewer          3D                             0

 50 51  0  0  0  0  0  0  0  0999 V2000
    0.2076   -1.6269    1.4952 O   0  0
   -0.3069   -1.2811    0.4513 C   0  0
   -1.7163   -0.8403    0.4006 C   0  0
   -2.0111    0.1816   -0.4850 C   0  0
   -3.3352    0.5900   -0.7303 C   0  0
   -4.2970   -0.0743   -0.0540 C   0  0
   -5.7590    0.1912   -0.2910 C   0  0
   -6.2847   -1.1217   -0.8741 C   0  0
   -6.0761    1.1667   -1.1534 O   0  0
   -5.8927    2.4718   -0.9334 C   0  0
   -6.4604    0.3596    1.0529 C   0  0
   -4.0343   -1.1254    0.8608 C   0  0
   -2.7047   -1.4843    1.0659 C   0  0
    0.3897   -1.2836   -0.7702 N   0  0
    1.7006   -1.6568   -1.0268 C   0  0
    2.8420   -0.9775   -0.3866 C   0  0
    4.1260   -1.3918   -0.8024 C   0  0
    4.1895   -2.6603   -1.9918 Cl  0  0
    5.2599   -0.8098   -0.2842 C   0  0
    5.2264    0.1830    0.6497 C   0  0
    6.4066    0.7755    1.2431 N   0  0
    7.6309    1.5598    0.3595 S   0  0
    8.4447    0.5415   -0.7904 C   0  0
    8.6712    2.0460    1.3722 O   0  0
    7.0830    2.7629   -0.3940 O   0  0
    3.9598    0.6042    1.0667 C   0  0
    2.8104    0.0249    0.5501 C   0  0
   -1.2653    0.7238   -1.0217 H   0  0
   -3.5356    1.3511   -1.4238 H   0  0
   -6.4452   -1.8130    0.0093 H   0  0
   -5.5670   -1.5831   -1.5801 H   0  0
   -7.2777   -0.9746   -1.3329 H   0  0
   -6.2348    3.0176   -1.8803 H   0  0
   -6.6718    2.8263   -0.1931 H   0  0
   -4.9148    2.8731   -0.6959 H   0  0
   -7.4278   -0.2151    1.1083 H   0  0
   -6.7597    1.4211    1.2135 H   0  0
   -5.8041   -0.0500    1.8362 H   0  0
   -4.7890   -1.6395    1.3824 H   0  0
   -2.5243   -2.2995    1.7677 H   0  0
   -0.2548   -0.9351   -1.5943 H   0  0
    1.8369   -1.4917   -2.1742 H   0  0
    1.8580   -2.7843   -1.0042 H   0  0
    6.2177   -1.1828   -0.6826 H   0  0
    6.4898    0.6859    2.3015 H   0  0
    9.5611    0.8045   -0.8452 H   0  0
    8.0335    0.6641   -1.8368 H   0  0
    8.4196   -0.5295   -0.5691 H   0  0
    3.9216    1.3910    1.8106 H   0  0
    1.8431    0.3796    0.8862 H   0  0
  1  2  2  0  0  0
  2 14  1  0  0  0
  2  3  1  0  0  0
  3  4  2  0  0  0
  4  5  1  0  0  0
  5  6  2  0  0  0
  6 12  1  0  0  0
  6  7  1  0  0  0
  7 11  1  0  0  0
  7  9  1  0  0  0
  7  8  1  0  0  0
  9 10  1  0  0  0
 12 13  2  0  0  0
 13  3  1  0  0  0
 14 15  1  0  0  0
 15 16  1  0  0  0
 16 17  2  0  0  0
 17 19  1  0  0  0
 17 18  1  0  0  0
 19 20  2  0  0  0
 20 26  1  0  0  0
 20 21  1  0  0  0
 21 22  1  0  0  0
 22 25  2  0  0  0
 22 24  2  0  0  0
 22 23  1  0  0  0
 26 27  2  0  0  0
 27 16  1  0  0  0
  4 28  1  0  0  0
  5 29  1  0  0  0
  8 30  1  0  0  0
  8 31  1  0  0  0
  8 32  1  0  0  0
 10 33  1  0  0  0
 10 34  1  0  0  0
 10 35  1  0  0  0
 11 36  1  0  0  0
 11 37  1  0  0  0
 11 38  1  0  0  0
 12 39  1  0  0  0
 13 40  1  0  0  0
 14 41  1  0  0  0
 15 42  1  0  0  0
 15 43  1  0  0  0
 19 44  1  0  0  0
 21 45  1  0  0  0
 23 46  1  0  0  0
 23 47  1  0  0  0
 23 48  1  0  0  0
 26 49  1  0  0  0
 27 50  1  0  0  0
M  END
> <pIC50>
8.046

$$$$
D3_36
  DSViewer          3D                             0

 50 52  0  0  0  0  0  0  0  0999 V2000
   -0.4168   -2.8418    1.2332 O   0  0
   -0.4629   -1.8144    0.4506 C   0  0
   -1.7236   -1.0449    0.3641 C   0  0
   -2.8354   -1.6011    0.9353 C   0  0
   -4.0574   -1.0348    0.6469 C   0  0
   -4.2601    0.0458   -0.1716 C   0  0
   -5.5599    0.5518   -0.6026 C   0  0  2  0  0  0
   -6.5356    0.8614    0.5312 C   0  0
   -6.8111   -0.2223   -0.5388 C   0  0  2  0  0  0
   -6.8775   -1.5844   -0.0467 C   0  0
   -7.5356   -1.9497    1.1113 N   0  0
   -8.5165   -1.0776    1.7762 C   0  0
   -7.3458   -3.1875    1.6951 O   0  0
   -6.9612   -2.8237    3.0167 C   0  0
   -6.2546   -2.4978   -0.7309 O   0  0
   -3.0998    0.5805   -0.7122 C   0  0
   -1.8223    0.0370   -0.4475 C   0  0
    0.6552   -1.4957   -0.3023 N   0  0
    1.9382   -2.0351   -0.5271 C   0  0
    2.9662   -1.0845   -0.1538 C   0  0
    3.2786   -0.7967    1.1534 C   0  0
    4.3931   -0.0147    1.4356 C   0  0
    5.1725    0.4643    0.4330 C   0  0
    4.8372    0.1681   -0.8680 C   0  0
    3.7530   -0.5989   -1.1916 C   0  0
    3.4134   -0.8952   -2.5628 C   0  0
    3.8210   -2.2261   -2.9038 F   0  0
    2.1295   -0.7106   -2.9496 F   0  0
    4.2507   -0.1356   -3.4086 F   0  0
   -2.7583   -2.4320    1.5687 H   0  0
   -4.8959   -1.4650    1.1582 H   0  0
   -5.5382    1.3503   -1.3827 H   0  0
   -7.1613    1.7648    0.4797 H   0  0
   -6.2948    0.4747    1.5142 H   0  0
   -7.6351    0.0551   -1.2246 H   0  0
   -9.3151   -1.7536    2.1746 H   0  0
   -8.9736   -0.3825    1.0450 H   0  0
   -8.0946   -0.5040    2.6023 H   0  0
   -7.8943   -2.7679    3.5940 H   0  0
   -6.4471   -1.8290    3.0107 H   0  0
   -6.2721   -3.5255    3.4931 H   0  0
   -3.1112    1.4445   -1.3458 H   0  0
   -0.9715    0.5290   -0.8924 H   0  0
    0.4685   -0.5516   -0.8716 H   0  0
    2.0442   -2.9441    0.1820 H   0  0
    2.0995   -2.5247   -1.5178 H   0  0
    2.6882   -1.1586    1.9785 H   0  0
    4.5917    0.1719    2.5186 H   0  0
    6.0524    1.0868    0.6649 H   0  0
    5.4794    0.5676   -1.6711 H   0  0
  1  2  2  0  0  0
  2 18  1  0  0  0
  2  3  1  0  0  0
  3  4  2  0  0  0
  4  5  1  0  0  0
  5  6  2  0  0  0
  6 16  1  0  0  0
  6  7  1  0  0  0
  7  9  1  0  0  0
  7  8  1  0  0  0
  9 10  1  0  0  0
  9  8  1  0  0  0
 10 15  2  0  0  0
 10 11  1  0  0  0
 11 13  1  0  0  0
 11 12  1  0  0  0
 13 14  1  0  0  0
 16 17  2  0  0  0
 17  3  1  0  0  0
 18 19  1  0  0  0
 19 20  1  0  0  0
 20 21  2  0  0  0
 21 22  1  0  0  0
 22 23  2  0  0  0
 23 24  1  0  0  0
 24 25  2  0  0  0
 25 26  1  0  0  0
 25 20  1  0  0  0
 26 29  1  0  0  0
 26 28  1  0  0  0
 26 27  1  0  0  0
  4 30  1  0  0  0
  5 31  1  0  0  0
  7 32  1  0  0  0
  8 33  1  0  0  0
  8 34  1  0  0  0
  9 35  1  0  0  0
 12 36  1  0  0  0
 12 37  1  0  0  0
 12 38  1  0  0  0
 14 39  1  0  0  0
 14 40  1  0  0  0
 14 41  1  0  0  0
 16 42  1  0  0  0
 17 43  1  0  0  0
 18 44  1  0  0  0
 19 45  1  0  0  0
 19 46  1  0  0  0
 21 47  1  0  0  0
 22 48  1  0  0  0
 23 49  1  0  0  0
 24 50  1  0  0  0
M  END
> <pIC50>
7.097

$$$$
D3_37
  DSViewer          3D                             0

 41 43  0  0  0  0  0  0  0  0999 V2000
    0.0544   -1.9480    1.5290 O   0  0
   -0.1902   -1.5765    0.3742 C   0  0
   -1.4896   -0.8727    0.2480 C   0  0
   -1.7072    0.2974   -0.3833 C   0  0
   -2.9678    0.8617   -0.3485 C   0  0
   -4.0430    0.2974    0.2983 C   0  0
   -5.3843    0.9100    0.4372 C   0  0  2  0  0  0
   -5.8486    0.8092    1.8694 C   0  0
   -6.6328    0.2210    0.6323 C   0  0  2  0  0  0
   -6.8786   -1.2142    0.7633 C   0  0
   -6.3683   -2.2139   -0.0677 O   0  5
   -7.6305   -1.6431    1.6966 O   0  0
   -3.8146   -0.9300    0.9544 C   0  0
   -2.5676   -1.4731    0.9148 C   0  0
    0.6414   -1.7902   -0.6584 N   0  0
    1.9759   -2.3939   -0.7882 C   0  0
    2.9030   -1.3788   -0.2050 C   0  0
    2.7794   -0.8806    1.0318 C   0  0
    3.6414    0.1354    1.5053 C   0  0
    4.6181    0.6009    0.6689 C   0  0
    4.7357    0.0711   -0.5947 C   0  0
    3.9033   -0.9287   -1.0879 C   0  0
    4.0263   -1.5364   -2.4187 C   0  0
    4.3389   -2.8708   -2.3902 F   0  0
    2.9030   -1.2440   -3.1828 F   0  0
    5.0952   -0.8818   -3.0478 F   0  0
   -0.8884    0.7999   -0.9206 H   0  0
   -3.1306    1.7998   -0.8574 H   0  0
   -5.4681    1.9385   -0.0084 H   0  0
   -5.3368    0.0916    2.5202 H   0  0
   -6.3128    1.6894    2.3461 H   0  0
   -7.6409    0.7787    0.5799 H   0  0
   -4.5723   -1.4518    1.5077 H   0  0
   -2.3405   -2.4322    1.3971 H   0  0
    0.2753   -1.4098   -1.6390 H   0  0
    1.9321   -3.2914   -0.0845 H   0  0
    2.1473   -2.7410   -1.7563 H   0  0
    2.1026   -1.2770    1.7639 H   0  0
    3.4886    0.4961    2.5342 H   0  0
    5.2802    1.4020    0.9754 H   0  0
    5.4899    0.4626   -1.2870 H   0  0
  1  2  2  0  0  0
  2 15  1  0  0  0
  2  3  1  0  0  0
  3  4  2  0  0  0
  4  5  1  0  0  0
  5  6  2  0  0  0
  6 13  1  0  0  0
  6  7  1  0  0  0
  7  9  1  0  0  0
  7  8  1  0  0  0
  9 10  1  0  0  0
  9  8  1  0  0  0
 10 12  2  0  0  0
 10 11  1  0  0  0
 13 14  2  0  0  0
 14  3  1  0  0  0
 15 16  1  0  0  0
 16 17  1  0  0  0
 17 18  2  0  0  0
 18 19  1  0  0  0
 19 20  2  0  0  0
 20 21  1  0  0  0
 21 22  2  0  0  0
 22 23  1  0  0  0
 22 17  1  0  0  0
 23 26  1  0  0  0
 23 25  1  0  0  0
 23 24  1  0  0  0
  4 27  1  0  0  0
  5 28  1  0  0  0
  7 29  1  0  0  0
  8 30  1  0  0  0
  8 31  1  0  0  0
  9 32  1  0  0  0
 13 33  1  0  0  0
 14 34  1  0  0  0
 15 35  1  0  0  0
 16 36  1  0  0  0
 16 37  1  0  0  0
 18 38  1  0  0  0
 19 39  1  0  0  0
 20 40  1  0  0  0
 21 41  1  0  0  0
M  CHG  1  11  -1
M  END
> <pIC50>
5.26

$$$$
D1_24
  DSViewer          3D                             0

 43 44  0  0  0  0  0  0  0  0999 V2000
    0.4449   -1.7342    1.3569 O   0  0
   -0.1493   -1.4068    0.3242 C   0  0
   -1.5318   -0.8889    0.2625 C   0  0
   -1.9687   -0.1128   -0.7852 C   0  0
   -3.2981    0.3400   -0.8760 C   0  0
   -4.2202    0.0218    0.0914 C   0  0
   -5.6402    0.4717   -0.0164 C   0  0
   -6.2353    0.6072    1.1930 F   0  0
   -6.3729   -0.4921   -0.9590 C   0  0
   -5.6089    1.6851   -0.7166 F   0  0
   -3.7824   -0.7541    1.1455 C   0  0
   -2.4682   -1.2092    1.2437 C   0  0
    0.5127   -1.5295   -0.9378 N   0  0
    1.8409   -2.0257   -1.0987 C   0  0
    2.8888   -1.1914   -0.5073 C   0  0
    4.2213   -1.6054   -0.5955 C   0  0
    4.5505   -3.1231   -1.4235 Cl  0  0
    5.2217   -0.8773   -0.0697 C   0  0
    5.0068    0.3363    0.5998 C   0  0
    6.0549    1.0868    1.1801 N   0  0
    7.5441    1.4778    0.4533 S   0  0
    8.5086    0.0351    0.0408 C   0  0
    8.3598    2.2445    1.4667 O   0  0
    7.4085    2.3439   -0.7662 O   0  0
    3.6898    0.7300    0.6770 C   0  0
    2.6358   -0.0099    0.1371 C   0  0
   -1.2992    0.1743   -1.5654 H   0  0
   -3.6196    0.9431   -1.7094 H   0  0
   -5.7030   -1.0161   -1.6538 H   0  0
   -6.9011   -1.2697   -0.3752 H   0  0
   -7.1358    0.0926   -1.5330 H   0  0
   -4.4913   -1.0214    1.9104 H   0  0
   -2.1324   -1.8117    2.0629 H   0  0
    0.0277   -1.2529   -1.8336 H   0  0
    1.8655   -3.0610   -0.6258 H   0  0
    2.1017   -2.2184   -2.1650 H   0  0
    6.2513   -1.2432   -0.1644 H   0  0
    5.8434    1.4212    2.1824 H   0  0
    9.5956    0.3345    0.1077 H   0  0
    8.3847   -0.7459    0.7910 H   0  0
    8.3483   -0.3071   -1.0022 H   0  0
    3.4281    1.6560    1.1609 H   0  0
    1.6269    0.3848    0.2355 H   0  0
  1  2  2  0  0  0
  2 13  1  0  0  0
  2  3  1  0  0  0
  3  4  2  0  0  0
  4  5  1  0  0  0
  5  6  2  0  0  0
  6 11  1  0  0  0
  6  7  1  0  0  0
  7 10  1  0  0  0
  7  9  1  0  0  0
  7  8  1  0  0  0
 11 12  2  0  0  0
 12  3  1  0  0  0
 13 14  1  0  0  0
 14 15  1  0  0  0
 15 16  2  0  0  0
 16 18  1  0  0  0
 16 17  1  0  0  0
 18 19  2  0  0  0
 19 25  1  0  0  0
 19 20  1  0  0  0
 20 21  1  0  0  0
 21 24  2  0  0  0
 21 23  2  0  0  0
 21 22  1  0  0  0
 25 26  2  0  0  0
 26 15  1  0  0  0
  4 27  1  0  0  0
  5 28  1  0  0  0
  9 29  1  0  0  0
  9 30  1  0  0  0
  9 31  1  0  0  0
 11 32  1  0  0  0
 12 33  1  0  0  0
 13 34  1  0  0  0
 14 35  1  0  0  0
 14 36  1  0  0  0
 18 37  1  0  0  0
 20 38  1  0  0  0
 22 39  1  0  0  0
 22 40  1  0  0  0
 22 41  1  0  0  0
 25 42  1  0  0  0
 26 43  1  0  0  0
M  END
> <pIC50>
8.699

$$$$
D1_26
  DSViewer          3D                             0

 43 44  0  0  0  0  0  0  0  0999 V2000
   -0.1061   -2.4305    1.2257 O   0  0
   -0.4372   -1.6140    0.2939 C   0  0
   -1.7827   -1.0742    0.3763 C   0  0
   -2.7583   -1.7517    1.1018 C   0  0
   -4.0450   -1.2453    1.2124 C   0  0
   -4.3108   -0.0296    0.5643 C   0  0
   -5.6869    0.5264    0.6935 C   0  0
   -5.5496    1.7595    1.2912 F   0  0
   -6.4858   -0.2600    1.4786 F   0  0
   -6.2829    0.6892   -0.6719 C   0  0
   -7.5983    1.1202   -0.4718 F   0  0
   -5.6602    1.6521   -1.4398 F   0  0
   -6.3739   -0.4823   -1.3677 F   0  0
   -3.3748    0.6554   -0.1527 C   0  0
   -2.0938    0.0975   -0.2313 C   0  0
    0.5014   -1.2979   -0.7272 N   0  0
    1.8020   -1.8548   -0.6999 C   0  0
    2.9085   -1.0399   -0.1830 C   0  0
    2.8984   -0.1470    0.8352 C   0  0
    1.4101    0.2751    1.6189 Cl  0  0
    4.0670    0.5041    1.2648 C   0  0
    5.2905    0.2825    0.6847 C   0  0
    6.4758    0.9162    1.1237 N   0  0
    7.6991    1.5614    0.1381 S   0  0
    7.1450    2.8883   -0.9144 C   0  0
    8.8278    2.0902    0.9806 O   0  0
    8.3185    0.5028   -0.7626 O   0  0
    5.3025   -0.6224   -0.3512 C   0  0
    4.1659   -1.2625   -0.7758 C   0  0
   -2.5113   -2.6811    1.5822 H   0  0
   -4.8174   -1.7581    1.7727 H   0  0
   -3.5262    1.5746   -0.6574 H   0  0
   -1.3395    0.6509   -0.8094 H   0  0
    0.2050   -0.6576   -1.4814 H   0  0
    2.0898   -2.2535   -1.7279 H   0  0
    1.8382   -2.8154   -0.0817 H   0  0
    4.0296    1.2244    2.0948 H   0  0
    6.5889    0.9814    2.1847 H   0  0
    6.7102    2.4856   -1.8687 H   0  0
    6.4879    3.6019   -0.4188 H   0  0
    8.0405    3.4846   -1.2398 H   0  0
    6.2500   -0.8226   -0.8329 H   0  0
    4.2203   -1.9725   -1.5969 H   0  0
  1  2  2  0  0  0
  2 16  1  0  0  0
  2  3  1  0  0  0
  3  4  2  0  0  0
  4  5  1  0  0  0
  5  6  2  0  0  0
  6 14  1  0  0  0
  6  7  1  0  0  0
  7 10  1  0  0  0
  7  9  1  0  0  0
  7  8  1  0  0  0
 10 13  1  0  0  0
 10 12  1  0  0  0
 10 11  1  0  0  0
 14 15  2  0  0  0
 15  3  1  0  0  0
 16 17  1  0  0  0
 17 18  1  0  0  0
 18 19  2  0  0  0
 19 21  1  0  0  0
 19 20  1  0  0  0
 21 22  2  0  0  0
 22 28  1  0  0  0
 22 23  1  0  0  0
 23 24  1  0  0  0
 24 27  2  0  0  0
 24 26  2  0  0  0
 24 25  1  0  0  0
 28 29  2  0  0  0
 29 18  1  0  0  0
  4 30  1  0  0  0
  5 31  1  0  0  0
 14 32  1  0  0  0
 15 33  1  0  0  0
 16 34  1  0  0  0
 17 35  1  0  0  0
 17 36  1  0  0  0
 21 37  1  0  0  0
 23 38  1  0  0  0
 25 39  1  0  0  0
 25 40  1  0  0  0
 25 41  1  0  0  0
 28 42  1  0  0  0
 29 43  1  0  0  0
M  END
> <pIC50>
8.398

$$$$
D1_10
  DSViewer          3D                             0

 48 51  0  0  0  0  0  0  0  0999 V2000
    0.2943   -1.6483    1.6937 O   0  0
   -0.2455   -1.4592    0.6024 C   0  0
   -1.6511   -1.0184    0.4675 C   0  0
   -1.8982    0.3401    0.3833 C   0  0
   -3.1750    0.8335    0.1810 C   0  0
   -4.2707   -0.0273    0.0539 C   0  0
   -5.5237    0.4493   -0.1898 C   0  0
   -6.8265    0.1165    0.4003 C   0  0
   -6.2301    0.2880   -1.5430 C   0  0
   -7.1909    1.0783   -0.7265 C   0  0
   -5.9762    1.8529   -0.2482 C   0  0
   -3.9995   -1.3699    0.1447 C   0  0
   -2.7045   -1.8680    0.3494 C   0  0
    0.5230   -1.6815   -0.5620 N   0  0
    1.8526   -2.0764   -0.7676 C   0  0
    2.9378   -1.1864   -0.3673 C   0  0
    4.2526   -1.5223   -0.6426 C   0  0
    4.5342   -3.0210   -1.5038 Cl  0  0
    5.3219   -0.7423   -0.2932 C   0  0
    5.0943    0.4569    0.3765 C   0  0
    6.2120    1.2923    0.7431 N   0  0
    7.7663    0.7324    1.1319 S   0  0
    7.8814   -0.3321    2.5190 C   0  0
    8.6750    1.9297    1.4032 O   0  0
    8.3997    0.0840   -0.1169 O   0  0
    3.8194    0.8142    0.6610 C   0  0
    2.7355   -0.0071    0.2884 C   0  0
   -1.0565    1.0055    0.4880 H   0  0
   -3.3887    1.8905    0.1068 H   0  0
   -7.0192    0.4932    1.4336 H   0  0
   -7.2156   -0.9089    0.2737 H   0  0
   -6.4603   -0.7345   -1.8296 H   0  0
   -5.6928    0.9195   -2.2936 H   0  0
   -8.1022    1.4424   -0.9339 H   0  0
   -6.0618    2.4355    0.6620 H   0  0
   -5.4815    2.3925   -1.1118 H   0  0
   -4.8258   -2.0913    0.0617 H   0  0
   -2.5381   -2.9453    0.4189 H   0  0
   -0.0422   -1.5098   -1.4686 H   0  0
    1.9543   -3.0853   -0.1933 H   0  0
    1.9840   -2.4390   -1.8266 H   0  0
    6.3549   -0.9847   -0.4942 H   0  0
    6.0210    2.3257    0.7733 H   0  0
    6.9334   -0.7061    2.9113 H   0  0
    8.4079    0.1234    3.4105 H   0  0
    8.5312   -1.2369    2.2363 H   0  0
    3.6463    1.7325    1.1824 H   0  0
    1.7442    0.3348    0.5466 H   0  0
  1  2  2  0  0  0
  2 14  1  0  0  0
  2  3  1  0  0  0
  3  4  2  0  0  0
  4  5  1  0  0  0
  5  6  2  0  0  0
  6 12  1  0  0  0
  7  9  1  0  0  0
  7  8  1  0  0  0
  7  6  1  0  0  0
  9 10  1  0  0  0
 10 11  1  0  0  0
 10  8  1  0  0  0
 11  7  1  0  0  0
 12 13  2  0  0  0
 13  3  1  0  0  0
 14 15  1  0  0  0
 15 16  1  0  0  0
 16 17  2  0  0  0
 17 19  1  0  0  0
 17 18  1  0  0  0
 19 20  2  0  0  0
 20 26  1  0  0  0
 20 21  1  0  0  0
 21 22  1  0  0  0
 22 25  2  0  0  0
 22 24  2  0  0  0
 22 23  1  0  0  0
 26 27  2  0  0  0
 27 16  1  0  0  0
  4 28  1  0  0  0
  5 29  1  0  0  0
  8 30  1  0  0  0
  8 31  1  0  0  0
  9 32  1  0  0  0
  9 33  1  0  0  0
 10 34  1  0  0  0
 11 35  1  0  0  0
 11 36  1  0  0  0
 12 37  1  0  0  0
 13 38  1  0  0  0
 14 39  1  0  0  0
 15 40  1  0  0  0
 15 41  1  0  0  0
 19 42  1  0  0  0
 21 43  1  0  0  0
 23 44  1  0  0  0
 23 45  1  0  0  0
 23 46  1  0  0  0
 26 47  1  0  0  0
 27 48  1  0  0  0
M  END
> <pIC50>
7.31

$$$$
D1_09
  DSViewer          3D                             0

 47 49  0  0  0  0  0  0  0  0999 V2000
    0.2257   -1.5232    1.5924 O   0  0
   -0.2969   -1.3748    0.4424 C   0  0
   -1.6102   -0.8261    0.2367 C   0  0
   -1.8724    0.3142   -0.4586 C   0  0
   -3.1570    0.8046   -0.6382 C   0  0
   -4.2109    0.1149   -0.0946 C   0  0
   -5.6154    0.5731   -0.2460 C   0  0
   -6.5637    0.2325    0.8609 C   0  0
   -6.6646   -0.4322   -0.5160 C   0  0
   -5.8731    1.9198   -0.9049 C   0  0
   -5.5488    1.8622   -2.2519 F   0  0
   -7.2596    2.1201   -0.8800 F   0  0
   -5.2905    2.9694   -0.2373 F   0  0
   -3.9814   -1.0349    0.6114 C   0  0
   -2.7211   -1.5059    0.7815 C   0  0
    0.5461   -1.8023   -0.6585 N   0  0
    1.8530   -2.3383   -0.4130 C   0  0
    2.8854   -1.4158    0.0570 C   0  0
    4.1629   -1.9564    0.3149 C   0  0
    4.2630   -3.7202    0.1158 Cl  0  0
    5.2400   -1.2042    0.6944 C   0  0
    5.1458    0.1724    0.8537 C   0  0
    6.2784    0.9747    1.2309 N   0  0
    7.8569    0.8207    0.6369 S   0  0
    8.7431    1.8649    1.2973 O   0  0
    8.5421   -0.7949    1.0213 C   0  0
    7.9656    1.0630   -0.8539 O   0  0
    3.8980    0.7017    0.6050 C   0  0
    2.7976   -0.0635    0.2188 C   0  0
   -1.0655    0.8689   -0.9055 H   0  0
   -3.2922    1.7013   -1.1847 H   0  0
   -7.4229    0.9150    1.0636 H   0  0
   -6.2550   -0.3969    1.6993 H   0  0
   -7.5589   -0.1455   -1.1450 H   0  0
   -6.4885   -1.5141   -0.5030 H   0  0
   -4.7805   -1.6210    1.0618 H   0  0
   -2.5520   -2.4039    1.3165 H   0  0
    0.1972   -1.7281   -1.6338 H   0  0
    2.1882   -2.8554   -1.3603 H   0  0
    1.7196   -3.2079    0.2947 H   0  0
    6.1923   -1.6885    0.8854 H   0  0
    6.0952    1.7493    1.9537 H   0  0
    8.2259   -1.1679    1.9947 H   0  0
    9.6698   -0.6444    1.1356 H   0  0
    8.3751   -1.5278    0.2243 H   0  0
    3.7958    1.7696    0.7263 H   0  0
    1.8379    0.4317    0.0414 H   0  0
  1  2  2  0  0  0
  2 16  1  0  0  0
  2  3  1  0  0  0
  3  4  2  0  0  0
  4  5  1  0  0  0
  5  6  2  0  0  0
  6 14  1  0  0  0
  6  7  1  0  0  0
  7 10  1  0  0  0
  7  8  1  0  0  0
  8  9  1  0  0  0
  9  7  1  0  0  0
 10 13  1  0  0  0
 10 12  1  0  0  0
 10 11  1  0  0  0
 14 15  2  0  0  0
 15  3  1  0  0  0
 16 17  1  0  0  0
 17 18  1  0  0  0
 18 19  2  0  0  0
 19 21  1  0  0  0
 19 20  1  0  0  0
 21 22  2  0  0  0
 22 28  1  0  0  0
 22 23  1  0  0  0
 23 24  1  0  0  0
 24 27  2  0  0  0
 24 26  1  0  0  0
 24 25  2  0  0  0
 28 29  2  0  0  0
 29 18  1  0  0  0
  4 30  1  0  0  0
  5 31  1  0  0  0
  8 32  1  0  0  0
  8 33  1  0  0  0
  9 34  1  0  0  0
  9 35  1  0  0  0
 14 36  1  0  0  0
 15 37  1  0  0  0
 16 38  1  0  0  0
 17 39  1  0  0  0
 17 40  1  0  0  0
 21 41  1  0  0  0
 23 42  1  0  0  0
 26 43  1  0  0  0
 26 44  1  0  0  0
 26 45  1  0  0  0
 28 46  1  0  0  0
 29 47  1  0  0  0
M  END
> <pIC50>
8.367

$$$$
D1_23
  DSViewer          3D                             0

 46 48  0  0  0  0  0  0  0  0999 V2000
    0.3974   -1.8115    1.5266 O   0  0
   -0.1709   -1.5045    0.4440 C   0  0
   -1.5140   -0.9615    0.3642 C   0  0
   -2.6264   -1.7454    0.4598 C   0  0
   -3.9027   -1.2404    0.3569 C   0  0
   -4.0984    0.1299    0.1462 C   0  0
   -5.4820    0.6493    0.0109 C   0  0
   -5.5616    2.0994   -0.3246 C   0  0
   -5.4267    2.3759    1.0367 O   0  0
   -6.1264    1.1640    1.2529 C   0  0
   -6.2852   -0.0972   -0.8471 O   0  0
   -2.9700    0.9047    0.0551 C   0  0
   -1.6846    0.3787    0.1606 C   0  0
    0.5493   -1.7036   -0.7679 N   0  0
    1.8708   -2.1985   -0.8737 C   0  0
    2.9334   -1.3450   -0.3343 C   0  0
    4.2436   -1.7634   -0.4173 C   0  0
    4.5635   -3.3245   -1.1370 Cl  0  0
    5.2558   -0.9651    0.0558 C   0  0
    5.0019    0.2743    0.6254 C   0  0
    6.0638    1.0979    1.1370 N   0  0
    7.2651    1.7900    0.1558 S   0  0
    8.2233    0.5889   -0.7038 C   0  0
    6.7214    2.8501   -0.7660 O   0  0
    8.2385    2.5430    1.0648 O   0  0
    3.6848    0.6722    0.7007 C   0  0
    2.6499   -0.1273    0.2255 C   0  0
   -2.5313   -2.8301    0.6266 H   0  0
   -4.7608   -1.8668    0.4371 H   0  0
   -6.5702    2.4090   -0.6888 H   0  0
   -4.7537    2.4315   -0.9843 H   0  0
   -7.2339    1.2483    1.0789 H   0  0
   -5.8612    0.7053    2.2162 H   0  0
   -6.6865   -0.8846   -0.4535 H   0  0
   -3.0472    1.9654   -0.0970 H   0  0
   -0.8119    1.0465    0.0830 H   0  0
    0.0435   -1.4536   -1.6646 H   0  0
    2.0752   -2.4762   -1.9515 H   0  0
    1.8679   -3.2229   -0.3745 H   0  0
    6.2886   -1.3040   -0.0022 H   0  0
    6.0732    1.2573    2.1712 H   0  0
    9.0467    1.0934   -1.2662 H   0  0
    7.5273    0.0711   -1.4059 H   0  0
    8.6185   -0.1506   -0.0029 H   0  0
    3.4172    1.6146    1.1274 H   0  0
    1.6250    0.2272    0.2928 H   0  0
  1  2  2  0  0  0
  2 14  1  0  0  0
  2  3  1  0  0  0
  3  4  2  0  0  0
  4  5  1  0  0  0
  5  6  2  0  0  0
  6 12  1  0  0  0
  6  7  1  0  0  0
  7 11  1  0  0  0
  7  8  1  0  0  0
  8  9  1  0  0  0
  9 10  1  0  0  0
 10  7  1  0  0  0
 12 13  2  0  0  0
 13  3  1  0  0  0
 14 15  1  0  0  0
 15 16  1  0  0  0
 16 17  2  0  0  0
 17 19  1  0  0  0
 17 18  1  0  0  0
 19 20  2  0  0  0
 20 26  1  0  0  0
 20 21  1  0  0  0
 21 22  1  0  0  0
 22 25  2  0  0  0
 22 24  2  0  0  0
 22 23  1  0  0  0
 26 27  2  0  0  0
 27 16  1  0  0  0
  4 28  1  0  0  0
  5 29  1  0  0  0
  8 30  1  0  0  0
  8 31  1  0  0  0
 10 32  1  0  0  0
 10 33  1  0  0  0
 11 34  1  0  0  0
 12 35  1  0  0  0
 13 36  1  0  0  0
 14 37  1  0  0  0
 15 38  1  0  0  0
 15 39  1  0  0  0
 19 40  1  0  0  0
 21 41  1  0  0  0
 23 42  1  0  0  0
 23 43  1  0  0  0
 23 44  1  0  0  0
 26 45  1  0  0  0
 27 46  1  0  0  0
M  END
> <pIC50>
6.955

$$$$
D3_38
  DSViewer          3D                             0

 44 46  0  0  0  0  0  0  0  0999 V2000
   -2.3438   -3.1786    0.3544 O   0  0
   -1.7402   -2.1399    0.3780 C   0  0
   -0.2628   -2.0483    0.2274 C   0  0
    0.4530   -1.6959    1.3313 C   0  0
    1.7737   -1.3740    1.2683 C   0  0
    2.4163   -1.4137   -0.0073 C   0  0
    3.7580   -0.8810   -0.0134 C   0  0
    3.9929    0.1855    0.8719 C   0  0
    5.1889    0.7765    0.9697 C   0  0
    6.2330    0.3335    0.1836 C   0  0
    7.5318    0.9747    0.3009 C   0  0
    8.5740    0.4879   -0.4633 O   0  5
    7.7410    1.9443    1.0813 O   0  0
    6.0057   -0.6897   -0.6710 C   0  0
    4.7611   -1.3268   -0.7918 C   0  0
    1.6858   -1.7790   -1.1117 C   0  0
    0.3146   -2.1046   -1.0065 C   0  0
   -2.4344   -0.8476    0.5336 N   0  0
   -3.8654   -0.8649    0.5785 C   0  0
   -4.4871    0.4386    0.3674 C   0  0
   -4.4833    1.4577    1.2624 C   0  0
   -5.2294    2.6173    1.1372 C   0  0
   -6.0417    2.7517    0.0262 C   0  0
   -6.0523    1.7309   -0.8979 C   0  0
   -5.3142    0.6087   -0.7638 C   0  0
   -5.1639   -0.4184   -1.8653 C   0  0
   -5.4198   -1.6877   -1.5035 F   0  0
   -3.8470   -0.2586   -2.3517 F   0  0
   -5.9872   -0.0376   -2.8976 F   0  0
   -0.0612   -1.6593    2.3072 H   0  0
    2.3290   -1.1043    2.1537 H   0  0
    3.1722    0.5168    1.4632 H   0  0
    5.3207    1.5908    1.6605 H   0  0
    6.7838   -1.0810   -1.3317 H   0  0
    4.6443   -2.1458   -1.4974 H   0  0
    2.1362   -1.8308   -2.0754 H   0  0
   -0.2810   -2.3786   -1.8599 H   0  0
   -1.8233   -0.0160    0.6029 H   0  0
   -4.0275   -0.9981    1.7773 H   0  0
   -4.3063   -1.7708    0.2164 H   0  0
   -3.8396    1.4050    2.1489 H   0  0
   -5.1810    3.4170    1.8881 H   0  0
   -6.6449    3.6402   -0.0971 H   0  0
   -6.7151    1.8455   -1.7884 H   0  0
  1  2  2  0  0  0
  2 18  1  0  0  0
  2  3  1  0  0  0
  3  4  2  0  0  0
  4  5  1  0  0  0
  5  6  2  0  0  0
  6 16  1  0  0  0
  6  7  1  0  0  0
  7  8  2  0  0  0
  8  9  1  0  0  0
  9 10  2  0  0  0
 10 14  1  0  0  0
 10 11  1  0  0  0
 11 13  2  0  0  0
 11 12  1  0  0  0
 14 15  2  0  0  0
 15  7  1  0  0  0
 16 17  2  0  0  0
 17  3  1  0  0  0
 18 19  1  0  0  0
 19 20  1  0  0  0
 20 21  2  0  0  0
 21 22  1  0  0  0
 22 23  2  0  0  0
 23 24  1  0  0  0
 24 25  2  0  0  0
 25 26  1  0  0  0
 25 20  1  0  0  0
 26 29  1  0  0  0
 26 28  1  0  0  0
 26 27  1  0  0  0
  4 30  1  0  0  0
  5 31  1  0  0  0
  8 32  1  0  0  0
  9 33  1  0  0  0
 14 34  1  0  0  0
 15 35  1  0  0  0
 16 36  1  0  0  0
 17 37  1  0  0  0
 18 38  1  0  0  0
 19 39  1  0  0  0
 19 40  1  0  0  0
 21 41  1  0  0  0
 22 42  1  0  0  0
 23 43  1  0  0  0
 24 44  1  0  0  0
M  CHG  1  12  -1
M  END
> <pIC50>
6.77

$$$$
D3_39
  DSViewer          3D                             0

 44 46  0  0  0  0  0  0  0  0999 V2000
   -0.1871   -2.1108    1.7221 O   0  0
   -0.4299   -1.7417    0.5855 C   0  0
   -1.7725   -1.1430    0.3347 C   0  0
   -1.8414    0.1375   -0.1497 C   0  0
   -3.0191    0.7879   -0.4239 C   0  0
   -4.1900    0.1052   -0.1999 C   0  0
   -5.4473    0.6794   -0.6212 C   0  0
   -5.7075    2.0175   -0.6180 C   0  0
   -6.8614    2.5313   -1.1944 C   0  0
   -7.7288    1.6062   -1.7652 C   0  0
   -7.4793    0.2603   -1.7704 C   0  0
   -8.4344   -0.6482   -2.3522 C   0  0
   -9.5091   -0.1280   -3.0992 O   0  5
   -8.3390   -1.8835   -2.2192 O   0  0
   -6.3348   -0.2233   -1.1966 C   0  0
   -4.1471   -1.1968    0.2892 C   0  0
   -2.9479   -1.8397    0.5634 C   0  0
    0.4366   -1.8087   -0.5089 N   0  0
    1.8013   -2.2668   -0.5134 C   0  0
    2.3520   -2.4144    0.8309 C   0  0
    2.0049   -3.5182    1.6226 C   0  0
    2.6752   -3.6812    2.8267 C   0  0
    3.6299   -2.8184    3.2351 C   0  0
    3.9739   -1.7192    2.4317 C   0  0
    3.3378   -1.5110    1.2319 C   0  0
    3.5800   -0.3292    0.3764 C   0  0
    4.3357    0.5712    1.1745 F   0  0
    4.2221   -0.4918   -0.7822 F   0  0
    2.3947    0.3864    0.1729 F   0  0
   -0.8681    0.6414   -0.3066 H   0  0
   -2.9881    1.7916   -0.7880 H   0  0
   -5.0007    2.7070   -0.1427 H   0  0
   -7.0784    3.5795   -1.2050 H   0  0
   -8.6314    1.9405   -2.2326 H   0  0
   -6.0961   -1.2659   -1.1831 H   0  0
   -5.0783   -1.7128    0.4677 H   0  0
   -2.8992   -2.8435    0.9291 H   0  0
    0.0877   -1.5031   -1.4811 H   0  0
    1.7462   -3.3231   -0.9763 H   0  0
    2.4418   -1.6952   -1.1665 H   0  0
    1.2798   -4.2394    1.3606 H   0  0
    2.3888   -4.5491    3.4487 H   0  0
    4.1745   -2.9124    4.1611 H   0  0
    4.7362   -1.0423    2.7773 H   0  0
  1  2  2  0  0  0
  2 18  1  0  0  0
  2  3  1  0  0  0
  3  4  2  0  0  0
  4  5  1  0  0  0
  5  6  2  0  0  0
  6 16  1  0  0  0
  6  7  1  0  0  0
  7  8  2  0  0  0
  8  9  1  0  0  0
  9 10  2  0  0  0
 10 11  1  0  0  0
 11 15  2  0  0  0
 11 12  1  0  0  0
 12 14  2  0  0  0
 12 13  1  0  0  0
 15  7  1  0  0  0
 16 17  2  0  0  0
 17  3  1  0  0  0
 18 19  1  0  0  0
 19 20  1  0  0  0
 20 21  2  0  0  0
 21 22  1  0  0  0
 22 23  2  0  0  0
 23 24  1  0  0  0
 24 25  2  0  0  0
 25 26  1  0  0  0
 25 20  1  0  0  0
 26 29  1  0  0  0
 26 28  1  0  0  0
 26 27  1  0  0  0
  4 30  1  0  0  0
  5 31  1  0  0  0
  8 32  1  0  0  0
  9 33  1  0  0  0
 10 34  1  0  0  0
 15 35  1  0  0  0
 16 36  1  0  0  0
 17 37  1  0  0  0
 18 38  1  0  0  0
 19 39  1  0  0  0
 19 40  1  0  0  0
 21 41  1  0  0  0
 22 42  1  0  0  0
 23 43  1  0  0  0
 24 44  1  0  0  0
M  CHG  1  13  -1
M  END
> <pIC50>
6

$$$$
D3_30
  DSViewer          3D                             0

 43 44  0  0  0  0  0  0  0  0999 V2000
   -0.6519   -3.1417   -0.0879 O   0  0
   -0.6382   -1.8574    0.0177 C   0  0
   -1.9115   -1.1508    0.0797 C   0  0
   -3.0470   -1.8913    0.3197 C   0  0
   -4.3076   -1.3575    0.2283 C   0  0
   -4.4653   -0.0188   -0.1209 C   0  0
   -5.8431    0.5036   -0.3359 C   0  0
   -6.6485    0.6022    0.9226 C   0  0  1  0  0  0
   -5.9863    1.4074    2.0161 C   0  0
   -7.9654    1.1476    0.5838 C   0  0
   -8.1808    2.5442    0.8396 O   0  5
   -8.9132    0.5430    0.0721 O   0  0
   -3.3537    0.7350   -0.3562 C   0  0
   -2.0720    0.1626   -0.2542 C   0  0
    0.6399   -1.2674    0.0340 N   0  0
    1.8847   -1.9777   -0.1363 C   0  0
    3.0800   -1.1093    0.0179 C   0  0
    3.5768   -0.7005    1.2191 C   0  0
    4.7829   -0.0021    1.3065 C   0  0
    5.4537    0.2677    0.1565 C   0  0
    4.9333   -0.1543   -1.0501 C   0  0
    3.7600   -0.8356   -1.1437 C   0  0
    3.2833   -1.2498   -2.4819 C   0  0
    1.9699   -1.1883   -2.7262 F   0  0
    3.7787   -2.6013   -2.6380 F   0  0
    4.0163   -0.5798   -3.4395 F   0  0
   -2.9800   -2.9506    0.6258 H   0  0
   -5.2034   -1.9139    0.4265 H   0  0
   -5.7317    1.5794   -0.6902 H   0  0
   -6.4185   -0.0405   -1.1077 H   0  0
   -6.8249   -0.4151    1.3892 H   0  0
   -6.5729    1.1594    2.9487 H   0  0
   -6.0033    2.4744    1.7994 H   0  0
   -4.9678    0.9778    2.1895 H   0  0
   -3.4333    1.7984   -0.6443 H   0  0
   -1.1710    0.7601   -0.4616 H   0  0
    0.6796   -0.2028    0.1791 H   0  0
    1.9244   -2.7386   -0.9205 H   0  0
    1.9197   -2.6277    0.8290 H   0  0
    3.0705   -0.9174    2.1398 H   0  0
    5.1359    0.2951    2.3090 H   0  0
    6.3969    0.8189    0.2264 H   0  0
    5.5104    0.1047   -1.9578 H   0  0
  1  2  2  0  0  0
  2 15  1  0  0  0
  2  3  1  0  0  0
  3  4  2  0  0  0
  4  5  1  0  0  0
  5  6  2  0  0  0
  6 13  1  0  0  0
  6  7  1  0  0  0
  7  8  1  0  0  0
  8 10  1  0  0  0
  8  9  1  0  0  0
 10 12  2  0  0  0
 10 11  1  0  0  0
 13 14  2  0  0  0
 14  3  1  0  0  0
 15 16  1  0  0  0
 16 17  1  0  0  0
 17 18  2  0  0  0
 18 19  1  0  0  0
 19 20  2  0  0  0
 20 21  1  0  0  0
 21 22  2  0  0  0
 22 23  1  0  0  0
 22 17  1  0  0  0
 23 26  1  0  0  0
 23 25  1  0  0  0
 23 24  1  0  0  0
  4 27  1  0  0  0
  5 28  1  0  0  0
  7 29  1  0  0  0
  7 30  1  0  0  0
  8 31  1  0  0  0
  9 32  1  0  0  0
  9 33  1  0  0  0
  9 34  1  0  0  0
 13 35  1  0  0  0
 14 36  1  0  0  0
 15 37  1  0  0  0
 16 38  1  0  0  0
 16 39  1  0  0  0
 18 40  1  0  0  0
 19 41  1  0  0  0
 20 42  1  0  0  0
 21 43  1  0  0  0
M  CHG  1  11  -1
M  END
> <pIC50>
5.097

$$$$
D3_18
  DSViewer          3D                             0

 50 51  0  0  0  0  0  0  0  0999 V2000
    0.3027   -1.9886   -0.3831 O   0  0
   -0.1830   -1.1330    0.3630 C   0  0
   -1.5932   -0.6867    0.1172 C   0  0
   -1.9746    0.6022   -0.0327 C   0  0
   -3.3400    0.8965   -0.0536 C   0  0
   -4.3012   -0.1177    0.0671 C   0  0
   -5.7272    0.1799    0.0981 C   0  0
   -6.3675    0.2265    1.4505 C   0  0  2  0  0  0
   -6.4251   -1.1848    2.0416 C   0  0
   -7.8417    0.5713    1.2395 C   0  0
   -8.2740    0.3561   -0.0954 O   0  0
   -9.5837    0.5672   -0.5284 C   0  0
  -10.4754   -0.4829    0.0939 C   0  0
   -8.5921    0.9919    2.0756 O   0  0
   -3.8574   -1.4084    0.2056 C   0  0
   -2.4944   -1.7134    0.2353 C   0  0
    0.5110   -0.5750    1.4021 N   0  0
    1.7902   -0.6876    2.0183 C   0  0
    2.9201   -0.6084    1.0862 C   0  0
    3.0792   -1.5190    0.0787 C   0  0
    4.1877   -1.4265   -0.7805 C   0  0
    5.1063   -0.4409   -0.6193 C   0  0
    4.9650    0.4865    0.4042 C   0  0
    3.8610    0.3887    1.2552 C   0  0
    3.6603    1.3240    2.4006 C   0  0
    3.8565    0.6363    3.6099 F   0  0
    2.5082    2.0236    2.3854 F   0  0
    4.7078    2.2385    2.3653 F   0  0
   -1.2112    1.3626   -0.1498 H   0  0
   -3.6499    1.9067   -0.1863 H   0  0
   -6.2815   -0.6398   -0.4611 H   0  0
   -5.9563    1.1348   -0.4622 H   0  0
   -5.8825    0.8631    2.1784 H   0  0
   -5.4962   -1.3759    2.5863 H   0  0
   -7.2423   -1.1338    2.8172 H   0  0
   -6.6617   -1.9098    1.2592 H   0  0
   -9.9483    1.5959   -0.2293 H   0  0
   -9.6049    0.4663   -1.6141 H   0  0
  -10.4246   -0.4165    1.1792 H   0  0
  -11.5226   -0.3859   -0.2980 H   0  0
  -10.1191   -1.4654   -0.3230 H   0  0
   -4.5529   -2.2427    0.2957 H   0  0
   -2.1705   -2.7243    0.3255 H   0  0
   -0.1303    0.2308    1.9040 H   0  0
    1.8892   -1.7687    2.4634 H   0  0
    1.8412   -0.0736    2.9108 H   0  0
    2.4626   -2.3926   -0.0277 H   0  0
    4.2817   -2.1814   -1.5512 H   0  0
    5.9743   -0.3400   -1.2912 H   0  0
    5.6539    1.2723    0.5354 H   0  0
  1  2  2  0  0  0
  2 17  1  0  0  0
  2  3  1  0  0  0
  3  4  2  0  0  0
  4  5  1  0  0  0
  5  6  2  0  0  0
  6 15  1  0  0  0
  6  7  1  0  0  0
  7  8  1  0  0  0
  8 10  1  0  0  0
  8  9  1  0  0  0
 10 14  2  0  0  0
 10 11  1  0  0  0
 11 12  1  0  0  0
 12 13  1  0  0  0
 15 16  2  0  0  0
 16  3  1  0  0  0
 17 18  1  0  0  0
 18 19  1  0  0  0
 19 20  2  0  0  0
 20 21  1  0  0  0
 21 22  2  0  0  0
 22 23  1  0  0  0
 23 24  2  0  0  0
 24 25  1  0  0  0
 24 19  1  0  0  0
 25 28  1  0  0  0
 25 27  1  0  0  0
 25 26  1  0  0  0
  4 29  1  0  0  0
  5 30  1  0  0  0
  7 31  1  0  0  0
  7 32  1  0  0  0
  8 33  1  0  0  0
  9 34  1  0  0  0
  9 35  1  0  0  0
  9 36  1  0  0  0
 12 37  1  0  0  0
 12 38  1  0  0  0
 13 39  1  0  0  0
 13 40  1  0  0  0
 13 41  1  0  0  0
 15 42  1  0  0  0
 16 43  1  0  0  0
 17 44  1  0  0  0
 18 45  1  0  0  0
 18 46  1  0  0  0
 20 47  1  0  0  0
 21 48  1  0  0  0
 22 49  1  0  0  0
 23 50  1  0  0  0
M  END
> <pIC50>
6.602

$$$$
D3_32
  DSViewer          3D                             0

 50 52  0  0  0  0  0  0  0  0999 V2000
   -0.0519   -2.3005    1.6041 O   0  0
   -0.3745   -1.6555    0.6593 C   0  0
   -1.7054   -0.9394    0.6612 C   0  0
   -2.7778   -1.7707    0.7974 C   0  0
   -4.0458   -1.3347    0.3254 C   0  0
   -4.0703   -0.0585   -0.1590 C   0  0
   -5.4597    0.3480   -0.6526 C   0  0
   -6.1406    0.4878    0.8006 C   0  0  2  0  0  0
   -7.5255    0.9229    0.6236 C   0  0
   -7.8550    2.1413    1.1705 C   0  0
   -9.0436    2.7762    0.7767 C   0  0
   -9.7768    2.0916   -0.1559 C   0  0
   -9.4788    0.8957   -0.6378 C   0  0
   -8.2848    0.2227   -0.2914 C   0  0
   -5.2810    1.5221    1.4075 C   0  0
   -5.0803    2.7400    0.7933 O   0  5
   -4.8290    1.3250    2.5856 O   0  0
   -3.0846    0.7628   -0.2700 C   0  0
   -1.7874    0.3382    0.1171 C   0  0
    0.3562   -1.4561   -0.5807 N   0  0
    1.7378   -2.0083   -0.5738 C   0  0
    2.5668   -0.7933   -0.2342 C   0  0
    2.5104    0.2958   -1.0548 C   0  0
    3.2176    1.4602   -0.7692 C   0  0
    3.9761    1.5173    0.3820 C   0  0
    3.9476    0.4159    1.2213 C   0  0
    3.2909   -0.7094    0.8963 C   0  0
    3.5270   -1.9749    1.6707 C   0  0
    2.6381   -2.2917    2.5819 F   0  0
    4.7735   -1.7158    2.3533 F   0  0
    3.9758   -3.0072    0.8140 F   0  0
   -2.6826   -2.6535    1.3928 H   0  0
   -4.8695   -1.9980    0.3903 H   0  0
   -5.3922    1.2826   -1.1646 H   0  0
   -5.8996   -0.4758   -1.2027 H   0  0
   -5.8978   -0.5015    1.1548 H   0  0
   -7.2145    2.5254    1.9304 H   0  0
   -9.2749    3.7288    1.1982 H   0  0
  -10.5833    2.7003   -0.6545 H   0  0
  -10.1543    0.3557   -1.3011 H   0  0
   -8.0371   -0.7436   -0.6623 H   0  0
   -3.0970    1.7286   -0.7178 H   0  0
   -0.9643    1.0158    0.1668 H   0  0
   -0.0811   -0.9956   -1.3898 H   0  0
    1.8011   -2.7971    0.1155 H   0  0
    1.9615   -2.1802   -1.6465 H   0  0
    1.9879    0.3007   -2.0210 H   0  0
    3.3245    2.2817   -1.4550 H   0  0
    4.5145    2.3843    0.7100 H   0  0
    4.3824    0.5561    2.2470 H   0  0
  1  2  2  0  0  0
  2 20  1  0  0  0
  2  3  1  0  0  0
  3  4  2  0  0  0
  4  5  1  0  0  0
  5  6  2  0  0  0
  6 18  1  0  0  0
  6  7  1  0  0  0
  7  8  1  0  0  0
  8 15  1  0  0  0
  8  9  1  0  0  0
  9 10  2  0  0  0
 10 11  1  0  0  0
 11 12  2  0  0  0
 12 13  1  0  0  0
 13 14  2  0  0  0
 14  9  1  0  0  0
 15 17  2  0  0  0
 15 16  1  0  0  0
 18 19  2  0  0  0
 19  3  1  0  0  0
 20 21  1  0  0  0
 21 22  1  0  0  0
 22 23  2  0  0  0
 23 24  1  0  0  0
 24 25  2  0  0  0
 25 26  1  0  0  0
 26 27  2  0  0  0
 27 28  1  0  0  0
 27 22  1  0  0  0
 28 31  1  0  0  0
 28 30  1  0  0  0
 28 29  1  0  0  0
  4 32  1  0  0  0
  5 33  1  0  0  0
  7 34  1  0  0  0
  7 35  1  0  0  0
  8 36  1  0  0  0
 10 37  1  0  0  0
 11 38  1  0  0  0
 12 39  1  0  0  0
 13 40  1  0  0  0
 14 41  1  0  0  0
 18 42  1  0  0  0
 19 43  1  0  0  0
 20 44  1  0  0  0
 21 45  1  0  0  0
 21 46  1  0  0  0
 23 47  1  0  0  0
 24 48  1  0  0  0
 25 49  1  0  0  0
 26 50  1  0  0  0
M  CHG  1  16  -1
M  END
> <pIC50>
5.602

$$$$
D3_20
  DSViewer          3D                             0

 57 59  0  0  0  0  0  0  0  0999 V2000
   -2.8259   -1.5729    1.0380 O   0  0
   -1.9856   -1.9010    0.1735 C   0  0
   -0.5748   -1.8236    0.5527 C   0  0
    0.3000   -1.6897   -0.5171 C   0  0
    1.5814   -1.4615   -0.2593 C   0  0
    2.0928   -1.3567    1.0739 C   0  0
    3.5291   -1.1333    1.0302 C   0  0
    3.8925    0.3751    0.9946 C   0  0  2  0  0  0
    5.2738    0.4177    0.4834 C   0  0
    5.4047   -0.1150   -0.8177 C   0  0
    6.6349   -0.0968   -1.3965 C   0  0
    7.7129    0.4213   -0.7418 C   0  0
    7.5875    0.9548    0.5564 C   0  0
    6.3365    0.9255    1.1273 C   0  0
    3.6355    0.9980    2.2766 C   0  0
    4.2187    0.3194    3.3765 O   0  0
    4.1919    0.7246    4.6964 C   0  0
    5.0942    1.9331    4.8380 C   0  0
    2.9890    2.0265    2.5154 O   0  0
    1.2264   -1.4902    2.0839 C   0  0
   -0.1520   -1.7290    1.8503 C   0  0
   -2.4057   -2.3057   -1.1613 N   0  0
   -3.8354   -2.1467   -1.4299 C   0  0
   -4.7350   -2.7833   -0.4759 C   0  0
   -4.8132   -4.1245   -0.2289 C   0  0
   -5.7517   -4.6871    0.6492 C   0  0
   -6.6156   -3.8057    1.2677 C   0  0
   -6.5333   -2.4717    1.0123 C   0  0
   -5.6308   -1.8796    0.1602 C   0  0
   -5.6602   -0.4438   -0.1591 C   0  0
   -4.3961    0.1835   -0.0967 F   0  0
   -6.4001    0.2247    0.7678 F   0  0
   -6.1275   -0.1706   -1.4479 F   0  0
   -0.0539   -1.7670   -1.5383 H   0  0
    2.2838   -1.3648   -1.0944 H   0  0
    4.0361   -1.5949    0.1859 H   0  0
    4.0322   -1.4865    1.9978 H   0  0
    3.2068    0.8481    0.2233 H   0  0
    4.5613   -0.4986   -1.3555 H   0  0
    6.7866   -0.4790   -2.3924 H   0  0
    8.7334    0.4530   -1.1544 H   0  0
    8.4140    1.3475    1.0890 H   0  0
    6.1843    1.3156    2.1542 H   0  0
    4.6334   -0.0822    5.3225 H   0  0
    3.1662    0.9833    5.0535 H   0  0
    6.1161    1.6183    4.4453 H   0  0
    4.7769    2.7598    4.2265 H   0  0
    5.2540    2.1406    5.8815 H   0  0
    1.5607   -1.3968    3.1045 H   0  0
   -0.8511   -1.8153    2.6671 H   0  0
   -1.7049   -2.6650   -1.8311 H   0  0
   -3.9396   -2.8330   -2.3749 H   0  0
   -4.1159   -1.1817   -1.8335 H   0  0
   -4.1554   -4.8468   -0.7362 H   0  0
   -5.7568   -5.7409    0.8122 H   0  0
   -7.3673   -4.2227    1.9363 H   0  0
   -7.2253   -1.7901    1.5062 H   0  0
  1  2  2  0  0  0
  2 22  1  0  0  0
  2  3  1  0  0  0
  3  4  2  0  0  0
  4  5  1  0  0  0
  5  6  2  0  0  0
  6 20  1  0  0  0
  6  7  1  0  0  0
  7  8  1  0  0  0
  8 15  1  0  0  0
  8  9  1  0  0  0
  9 10  2  0  0  0
 10 11  1  0  0  0
 11 12  2  0  0  0
 12 13  1  0  0  0
 13 14  2  0  0  0
 14  9  1  0  0  0
 15 19  2  0  0  0
 15 16  1  0  0  0
 16 17  1  0  0  0
 17 18  1  0  0  0
 20 21  2  0  0  0
 21  3  1  0  0  0
 22 23  1  0  0  0
 23 24  1  0  0  0
 24 25  2  0  0  0
 25 26  1  0  0  0
 26 27  2  0  0  0
 27 28  1  0  0  0
 28 29  2  0  0  0
 29 30  1  0  0  0
 29 24  1  0  0  0
 30 33  1  0  0  0
 30 32  1  0  0  0
 30 31  1  0  0  0
  4 34  1  0  0  0
  5 35  1  0  0  0
  7 36  1  0  0  0
  7 37  1  0  0  0
  8 38  1  0  0  0
 10 39  1  0  0  0
 11 40  1  0  0  0
 12 41  1  0  0  0
 13 42  1  0  0  0
 14 43  1  0  0  0
 17 44  1  0  0  0
 17 45  1  0  0  0
 18 46  1  0  0  0
 18 47  1  0  0  0
 18 48  1  0  0  0
 20 49  1  0  0  0
 21 50  1  0  0  0
 22 51  1  0  0  0
 23 52  1  0  0  0
 23 53  1  0  0  0
 25 54  1  0  0  0
 26 55  1  0  0  0
 27 56  1  0  0  0
 28 57  1  0  0  0
M  END
> <pIC50>
6.921

$$$$
D3_22
  DSViewer          3D                             0

 46 47  0  0  0  0  0  0  0  0999 V2000
    0.0427   -1.7922    1.6538 O   0  0
   -0.2983   -1.5032    0.4426 C   0  0
   -1.6278   -0.9350    0.2788 C   0  0
   -1.8652    0.4159    0.2154 C   0  0
   -3.1667    0.8944    0.1454 C   0  0
   -4.2904    0.0894    0.1354 C   0  0
   -5.6598    0.6182    0.1712 C   0  0
   -6.3175    0.9517   -1.1142 C   0  0  2  0  0  0
   -7.7754    1.3422   -0.7032 C   0  0
   -7.6782    2.5042    0.2270 C   0  0
   -6.4004   -0.2400   -1.9868 C   0  0
   -7.5409   -0.9897   -2.0180 O   0  5
   -5.4136   -0.5431   -2.6873 O   0  0
   -4.0450   -1.2894    0.1962 C   0  0
   -2.7545   -1.7594    0.2673 C   0  0
    0.6104   -1.7639   -0.5873 N   0  0
    1.9018   -2.3331   -0.2942 C   0  0
    2.9304   -1.3322    0.0102 C   0  0
    3.9548   -1.1256   -0.9432 C   0  0
    4.9839   -0.2463   -0.7363 C   0  0
    5.0835    0.4879    0.4128 C   0  0
    6.2387    1.4252    0.6397 C   0  0
    7.1619    0.7044    1.4397 F   0  0
    5.8319    2.4887    1.3876 F   0  0
    6.8286    1.7318   -0.5505 F   0  0
    4.0914    0.3186    1.3763 C   0  0
    3.0299   -0.5878    1.1545 C   0  0
   -1.0119    1.1033    0.2128 H   0  0
   -3.3279    1.9522    0.0905 H   0  0
   -5.7263    1.5020    0.8778 H   0  0
   -6.2903   -0.1484    0.7411 H   0  0
   -5.8740    1.8419   -1.5842 H   0  0
   -8.1901    0.4791   -0.1521 H   0  0
   -8.3710    1.5680   -1.5966 H   0  0
   -8.5872    3.1395    0.0531 H   0  0
   -7.7477    2.1800    1.2946 H   0  0
   -6.7638    3.1031    0.0922 H   0  0
   -4.8987   -1.9405    0.1830 H   0  0
   -2.5653   -2.8258    0.3121 H   0  0
    0.3479   -1.5375   -1.6185 H   0  0
    1.7467   -3.0097    0.6112 H   0  0
    2.2492   -3.0621   -1.0712 H   0  0
    3.8712   -1.7085   -1.8528 H   0  0
    5.7595   -0.1046   -1.4808 H   0  0
    4.1533    0.8976    2.2744 H   0  0
    2.3038   -0.6751    1.9223 H   0  0
  1  2  2  0  0  0
  2 16  1  0  0  0
  2  3  1  0  0  0
  3  4  2  0  0  0
  4  5  1  0  0  0
  5  6  2  0  0  0
  6 14  1  0  0  0
  6  7  1  0  0  0
  7  8  1  0  0  0
  8 11  1  0  0  0
  8  9  1  0  0  0
  9 10  1  0  0  0
 11 13  2  0  0  0
 11 12  1  0  0  0
 14 15  2  0  0  0
 15  3  1  0  0  0
 16 17  1  0  0  0
 17 18  1  0  0  0
 18 19  2  0  0  0
 19 20  1  0  0  0
 20 21  2  0  0  0
 21 26  1  0  0  0
 21 22  1  0  0  0
 22 25  1  0  0  0
 22 24  1  0  0  0
 22 23  1  0  0  0
 26 27  2  0  0  0
 27 18  1  0  0  0
  4 28  1  0  0  0
  5 29  1  0  0  0
  7 30  1  0  0  0
  7 31  1  0  0  0
  8 32  1  0  0  0
  9 33  1  0  0  0
  9 34  1  0  0  0
 10 35  1  0  0  0
 10 36  1  0  0  0
 10 37  1  0  0  0
 14 38  1  0  0  0
 15 39  1  0  0  0
 16 40  1  0  0  0
 17 41  1  0  0  0
 17 42  1  0  0  0
 19 43  1  0  0  0
 20 44  1  0  0  0
 26 45  1  0  0  0
 27 46  1  0  0  0
M  CHG  1  12  -1
M  END
> <pIC50>
5.143

$$$$
D3_24
  DSViewer          3D                             0

 43 44  0  0  0  0  0  0  0  0999 V2000
    0.3782   -2.1910    1.4943 O   0  0
   -0.1771   -1.5323    0.5890 C   0  0
   -1.4727   -0.9299    0.8689 C   0  0
   -1.9272    0.1814    0.1709 C   0  0
   -3.1670    0.7270    0.4443 C   0  0
   -4.0044    0.2084    1.4058 C   0  0
   -5.3141    0.8250    1.6619 C   0  0
   -6.4105    0.2667    0.7908 C   0  0  1  0  0  0
   -7.7052    0.9596    1.1596 C   0  0
   -7.6696    2.4428    0.9653 C   0  0
   -6.1637    0.4529   -0.6379 C   0  0
   -5.2502   -0.3481   -1.2868 O   0  5
   -6.7685    1.3309   -1.2959 O   0  0
   -3.5412   -0.8939    2.0911 C   0  0
   -2.3092   -1.4557    1.8367 C   0  0
    0.4547   -1.3904   -0.6670 N   0  0
    1.7268   -1.9536   -1.0103 C   0  0
    2.8060   -1.1434   -0.4291 C   0  0
    2.6040   -0.0081    0.2940 C   0  0
    3.6663    0.7289    0.8165 C   0  0
    4.9321    0.2599    0.5704 C   0  0
    6.3140    1.1363    1.1935 Cl  0  0
    5.1612   -0.8860   -0.1579 C   0  0
    4.1035   -1.5892   -0.6583 C   0  0
   -1.2666    0.5841   -0.5816 H   0  0
   -3.4449    1.5903   -0.1433 H   0  0
   -5.5472    0.6671    2.7355 H   0  0
   -5.2111    1.9271    1.5481 H   0  0
   -6.5251   -0.8032    1.0796 H   0  0
   -7.9039    0.7878    2.2512 H   0  0
   -8.5176    0.4653    0.5867 H   0  0
   -6.7183    2.8213    0.5070 H   0  0
   -8.5483    2.7402    0.3298 H   0  0
   -7.7807    3.0139    1.9236 H   0  0
   -4.1563   -1.3568    2.8710 H   0  0
   -1.9512   -2.3334    2.3879 H   0  0
   -0.0589   -0.8276   -1.3950 H   0  0
    1.8548   -1.9699   -2.1074 H   0  0
    1.8211   -3.0167   -0.6657 H   0  0
    1.5986    0.3430    0.4757 H   0  0
    3.4498    1.6125    1.3758 H   0  0
    6.1628   -1.2401   -0.3410 H   0  0
    4.2883   -2.4887   -1.2297 H   0  0
  1  2  2  0  0  0
  2 16  1  0  0  0
  2  3  1  0  0  0
  3  4  2  0  0  0
  4  5  1  0  0  0
  5  6  2  0  0  0
  6 14  1  0  0  0
  6  7  1  0  0  0
  7  8  1  0  0  0
  8 11  1  0  0  0
  8  9  1  0  0  0
  9 10  1  0  0  0
 11 13  2  0  0  0
 11 12  1  0  0  0
 14 15  2  0  0  0
 15  3  1  0  0  0
 16 17  1  0  0  0
 17 18  1  0  0  0
 18 19  2  0  0  0
 19 20  1  0  0  0
 20 21  2  0  0  0
 21 23  1  0  0  0
 21 22  1  0  0  0
 23 24  2  0  0  0
 24 18  1  0  0  0
  4 25  1  0  0  0
  5 26  1  0  0  0
  7 27  1  0  0  0
  7 28  1  0  0  0
  8 29  1  0  0  0
  9 30  1  0  0  0
  9 31  1  0  0  0
 10 32  1  0  0  0
 10 33  1  0  0  0
 10 34  1  0  0  0
 14 35  1  0  0  0
 15 36  1  0  0  0
 16 37  1  0  0  0
 17 38  1  0  0  0
 17 39  1  0  0  0
 19 40  1  0  0  0
 20 41  1  0  0  0
 23 42  1  0  0  0
 24 43  1  0  0  0
M  CHG  1  12  -1
M  END
> <pIC50>
5.824

$$$$
D3_26
  DSViewer          3D                             0

 46 47  0  0  0  0  0  0  0  0999 V2000
   -0.1927   -2.1672    1.6270 O   0  0
   -0.4268   -1.4992    0.5749 C   0  0
   -1.7642   -1.1285    0.2487 C   0  0
   -2.8535   -1.9345    0.3249 C   0  0
   -4.1663   -1.4863    0.1273 C   0  0
   -4.3538   -0.1809   -0.1641 C   0  0
   -5.7232    0.3710   -0.3839 C   0  0
   -6.5699   -0.7173   -0.9986 C   0  0  1  0  0  0
   -7.7380   -0.0135   -1.7701 C   0  0
   -8.5347    0.8841   -0.8904 C   0  0
   -5.8406   -1.3296   -2.1808 C   0  0
   -6.3794   -2.3700   -2.8776 O   0  5
   -4.7391   -0.8372   -2.4912 O   0  0
   -3.2723    0.6890   -0.2571 C   0  0
   -1.9964    0.2265   -0.0497 C   0  0
    0.7366   -1.1184   -0.2214 N   0  0
    1.9760   -1.4445    0.4494 C   0  0
    3.2357   -1.0081   -0.0782 C   0  0
    3.8638   -1.4009   -1.1838 C   0  0
    5.2010   -1.0414   -1.4751 C   0  0
    5.9041   -0.2672   -0.6072 C   0  0
    7.2054    0.0939   -0.8739 F   0  0
    5.2625    0.1575    0.5695 C   0  0
    3.9842   -0.1915    0.8292 C   0  0
    3.2674    0.3643    2.0158 C   0  0
    3.0726   -0.6354    2.9551 F   0  0
    2.0953    0.9869    1.6240 F   0  0
    4.0594    1.2994    2.6570 F   0  0
   -2.7304   -3.0069    0.5495 H   0  0
   -4.9745   -2.2104    0.2044 H   0  0
   -6.2017    0.7015    0.5587 H   0  0
   -5.6095    1.2457   -1.0710 H   0  0
   -6.9277   -1.4490   -0.3418 H   0  0
   -7.2300    0.5756   -2.5886 H   0  0
   -8.3654   -0.8160   -2.2010 H   0  0
   -8.7448    0.4754    0.1031 H   0  0
   -8.0410    1.8837   -0.7920 H   0  0
   -9.5338    1.0565   -1.4048 H   0  0
   -3.4933    1.7323   -0.4924 H   0  0
   -1.1544    0.8790   -0.1063 H   0  0
    0.6323   -0.6614   -1.1433 H   0  0
    1.9268   -2.6404    0.3868 H   0  0
    1.8267   -1.3149    1.5313 H   0  0
    3.4126   -2.0486   -1.9529 H   0  0
    5.6715   -1.3721   -2.3696 H   0  0
    5.8649    0.7733    1.2439 H   0  0
  1  2  2  0  0  0
  2 16  1  0  0  0
  2  3  1  0  0  0
  3  4  2  0  0  0
  4  5  1  0  0  0
  5  6  2  0  0  0
  6 14  1  0  0  0
  6  7  1  0  0  0
  7  8  1  0  0  0
  8 11  1  0  0  0
  8  9  1  0  0  0
  9 10  1  0  0  0
 11 13  2  0  0  0
 11 12  1  0  0  0
 14 15  2  0  0  0
 15  3  1  0  0  0
 16 17  1  0  0  0
 17 18  1  0  0  0
 18 19  2  0  0  0
 19 20  1  0  0  0
 20 21  2  0  0  0
 21 23  1  0  0  0
 21 22  1  0  0  0
 23 24  2  0  0  0
 24 25  1  0  0  0
 24 18  1  0  0  0
 25 28  1  0  0  0
 25 27  1  0  0  0
 25 26  1  0  0  0
  4 29  1  0  0  0
  5 30  1  0  0  0
  7 31  1  0  0  0
  7 32  1  0  0  0
  8 33  1  0  0  0
  9 34  1  0  0  0
  9 35  1  0  0  0
 10 36  1  0  0  0
 10 37  1  0  0  0
 10 38  1  0  0  0
 14 39  1  0  0  0
 15 40  1  0  0  0
 16 41  1  0  0  0
 17 42  1  0  0  0
 17 43  1  0  0  0
 19 44  1  0  0  0
 20 45  1  0  0  0
 23 46  1  0  0  0
M  CHG  1  12  -1
M  END
> <pIC50>
5.921

$$$$
D3_23
  DSViewer          3D                             0

 47 48  0  0  0  0  0  0  0  0999 V2000
   -0.6306   -3.0820   -0.9744 O   0  0
   -0.6438   -1.9074   -0.5491 C   0  0
   -1.9007   -1.2476   -0.2134 C   0  0
   -3.0157   -1.9839    0.1750 C   0  0
   -4.2181   -1.4035    0.5071 C   0  0
   -4.3795   -0.0501    0.4717 C   0  0
   -5.5930    0.6899    0.8067 C   0  0
   -6.5265    0.9873   -0.3111 C   0  0  2  0  0  0
   -7.2817   -0.2283   -0.7878 C   0  0
   -8.1339   -0.8482    0.2969 C   0  0
   -5.9454    1.7836   -1.3850 C   0  0
   -5.7001    1.2219   -2.6184 O   0  5
   -5.6628    2.9845   -1.2014 O   0  0
   -3.2624    0.6873    0.0808 C   0  0
   -2.0633    0.1279   -0.2515 C   0  0
    0.6092   -1.1967   -0.3851 N   0  0
    1.8332   -1.8808   -0.7183 C   0  0
    3.0105   -1.1452   -0.2662 C   0  0
    4.2652   -1.5331   -0.7684 C   0  0
    5.4096   -0.9011   -0.3645 C   0  0
    5.3866    0.1416    0.5493 C   0  0
    6.5551    0.7576    0.9405 O   0  0
    7.1394    1.8661    0.3171 C   0  0
    6.2963    2.9468    0.3287 F   0  0
    7.5286    1.5586   -0.9741 F   0  0
    8.2901    2.1762    1.0471 F   0  0
    4.1614    0.5043    1.0244 C   0  0
    2.9760   -0.1239    0.6301 C   0  0
   -2.8675   -3.0656    0.2016 H   0  0
   -5.0532   -2.0229    0.8012 H   0  0
   -6.1704    0.1772    1.6273 H   0  0
   -5.2620    1.6537    1.2901 H   0  0
   -7.3375    1.6550    0.1441 H   0  0
   -7.9793    0.0487   -1.6276 H   0  0
   -6.6215   -1.0204   -1.1998 H   0  0
   -8.7430   -1.6595   -0.1565 H   0  0
   -8.8041   -0.0240    0.6746 H   0  0
   -7.5331   -1.2190    1.1272 H   0  0
   -3.3408    1.7614    0.0317 H   0  0
   -1.2135    0.7226   -0.5503 H   0  0
    0.5028   -0.2362   -0.0362 H   0  0
    1.8947   -2.1137   -1.8134 H   0  0
    1.7933   -2.8596   -0.1565 H   0  0
    4.2918   -2.3569   -1.4905 H   0  0
    6.3515   -1.2387   -0.7768 H   0  0
    4.0918    1.3156    1.7423 H   0  0
    2.0546    0.2348    1.0727 H   0  0
  1  2  2  0  0  0
  2 16  1  0  0  0
  2  3  1  0  0  0
  3  4  2  0  0  0
  4  5  1  0  0  0
  5  6  2  0  0  0
  6 14  1  0  0  0
  6  7  1  0  0  0
  7  8  1  0  0  0
  8 11  1  0  0  0
  8  9  1  0  0  0
  9 10  1  0  0  0
 11 13  2  0  0  0
 11 12  1  0  0  0
 14 15  2  0  0  0
 15  3  1  0  0  0
 16 17  1  0  0  0
 17 18  1  0  0  0
 18 19  2  0  0  0
 19 20  1  0  0  0
 20 21  2  0  0  0
 21 27  1  0  0  0
 21 22  1  0  0  0
 22 23  1  0  0  0
 23 26  1  0  0  0
 23 25  1  0  0  0
 23 24  1  0  0  0
 27 28  2  0  0  0
 28 18  1  0  0  0
  4 29  1  0  0  0
  5 30  1  0  0  0
  7 31  1  0  0  0
  7 32  1  0  0  0
  8 33  1  0  0  0
  9 34  1  0  0  0
  9 35  1  0  0  0
 10 36  1  0  0  0
 10 37  1  0  0  0
 10 38  1  0  0  0
 14 39  1  0  0  0
 15 40  1  0  0  0
 16 41  1  0  0  0
 17 42  1  0  0  0
 17 43  1  0  0  0
 19 44  1  0  0  0
 20 45  1  0  0  0
 27 46  1  0  0  0
 28 47  1  0  0  0
M  CHG  1  12  -1
M  END
> <pIC50>
4.854

$$$$
D3_27
  DSViewer          3D                             0

 50 51  0  0  0  0  0  0  0  0999 V2000
   -0.6151   -2.9177   -0.9212 O   0  0
   -0.6917   -1.7847   -0.3749 C   0  0
   -1.9858   -1.2331   -0.0773 C   0  0
   -3.0667   -2.1039   -0.1045 C   0  0
   -4.3104   -1.5991    0.1706 C   0  0
   -4.4733   -0.2586    0.4658 C   0  0
   -5.8641    0.2076    0.7535 C   0  0
   -6.4964    0.6360   -0.5353 C   0  0  2  0  0  0
   -5.7287    1.7361   -1.2125 C   0  0
   -6.4415    2.0967   -2.4960 C   0  0
   -7.8683    1.0992   -0.2733 C   0  0
   -8.7623    1.2408   -1.3428 O   0  5
   -8.2120    1.3591    0.9058 O   0  0
   -3.4101    0.6003    0.4929 C   0  0
   -2.1455    0.1047    0.2167 C   0  0
    0.5245   -1.0620   -0.0575 N   0  0
    1.7374   -1.7347   -0.4130 C   0  0
    2.9835   -1.0022   -0.0923 C   0  0
    3.0306    0.2415    0.5015 C   0  0
    4.2373    0.8938    0.7856 C   0  0
    5.4486    0.3174    0.4818 C   0  0
    6.6550    0.9648    0.7636 O   0  0
    6.6025    2.2405    1.3751 C   0  0
    5.4140   -0.9231   -0.1108 C   0  0
    4.2274   -1.5651   -0.3905 C   0  0
    4.2251   -2.9199   -1.0397 C   0  0
    3.6811   -3.8327   -0.1594 F   0  0
    5.5586   -3.3237   -1.2319 F   0  0
    3.5668   -2.8778   -2.2486 F   0  0
   -2.9083   -3.1638   -0.3418 H   0  0
   -5.1758   -2.2756    0.1530 H   0  0
   -6.4168   -0.6103    1.2146 H   0  0
   -5.7745    1.0183    1.4880 H   0  0
   -6.4781   -0.2407   -1.2420 H   0  0
   -4.7041    1.4026   -1.4747 H   0  0
   -5.6454    2.6487   -0.5983 H   0  0
   -5.7532    2.5810   -3.2367 H   0  0
   -6.8421    1.1894   -2.9930 H   0  0
   -7.2496    2.8547   -2.3049 H   0  0
   -3.5754    1.6465    0.7286 H   0  0
   -1.3065    0.8100    0.2400 H   0  0
    0.4164   -0.1492    0.3888 H   0  0
    1.6450   -1.9900   -1.4919 H   0  0
    1.7084   -2.7384    0.1082 H   0  0
    2.0947    0.7351    0.7591 H   0  0
    4.2204    1.8700    1.2530 H   0  0
    5.9350    2.9310    0.7837 H   0  0
    7.5832    2.7077    1.4493 H   0  0
    6.0889    2.1146    2.3579 H   0  0
    6.3692   -1.4059   -0.3639 H   0  0
  1  2  2  0  0  0
  2 16  1  0  0  0
  2  3  1  0  0  0
  3  4  2  0  0  0
  4  5  1  0  0  0
  5  6  2  0  0  0
  6 14  1  0  0  0
  6  7  1  0  0  0
  7  8  1  0  0  0
  8 11  1  0  0  0
  8  9  1  0  0  0
  9 10  1  0  0  0
 11 13  2  0  0  0
 11 12  1  0  0  0
 14 15  2  0  0  0
 15  3  1  0  0  0
 16 17  1  0  0  0
 17 18  1  0  0  0
 18 19  2  0  0  0
 19 20  1  0  0  0
 20 21  2  0  0  0
 21 24  1  0  0  0
 21 22  1  0  0  0
 22 23  1  0  0  0
 24 25  2  0  0  0
 25 26  1  0  0  0
 25 18  1  0  0  0
 26 29  1  0  0  0
 26 28  1  0  0  0
 26 27  1  0  0  0
  4 30  1  0  0  0
  5 31  1  0  0  0
  7 32  1  0  0  0
  7 33  1  0  0  0
  8 34  1  0  0  0
  9 35  1  0  0  0
  9 36  1  0  0  0
 10 37  1  0  0  0
 10 38  1  0  0  0
 10 39  1  0  0  0
 14 40  1  0  0  0
 15 41  1  0  0  0
 16 42  1  0  0  0
 17 43  1  0  0  0
 17 44  1  0  0  0
 19 45  1  0  0  0
 20 46  1  0  0  0
 23 47  1  0  0  0
 23 48  1  0  0  0
 23 49  1  0  0  0
 24 50  1  0  0  0
M  CHG  1  12  -1
M  END
> <pIC50>
6.481

$$$$
D3_25
  DSViewer          3D                             0

 54 56  0  0  0  0  0  0  0  0999 V2000
   -0.6146   -3.2679   -0.2058 O   0  0
   -0.6191   -2.0025   -0.0854 C   0  0
   -1.8696   -1.2592   -0.1033 C   0  0
   -1.9196    0.1035    0.0225 C   0  0
   -3.1206    0.7968    0.0034 C   0  0
   -4.3051    0.1075   -0.1457 C   0  0
   -5.6069    0.8136   -0.1707 C   0  0
   -6.1634    0.9285    1.2145 C   0  0  1  0  0  0
   -5.1874    1.6417    2.1327 C   0  0
   -5.8155    1.7255    3.5275 C   0  0
   -7.4546    1.6354    1.1400 C   0  0
   -7.5576    2.9340    1.5820 O   0  5
   -8.4571    1.0591    0.6764 O   0  0
   -4.2536   -1.2661   -0.2725 C   0  0
   -3.0490   -1.9471   -0.2520 C   0  0
    0.6576   -1.3957    0.0631 N   0  0
    1.8857   -2.2047    0.0731 C   0  0
    3.0238   -1.2861    0.2421 C   0  0
    3.5302   -0.9211    1.4717 C   0  0
    4.6042   -0.0519    1.5721 C   0  0
    5.2156    0.4872    0.4578 C   0  0
    6.2915    1.3572    0.5752 O   0  0
    7.5907    0.8558    0.5987 C   0  0
    7.8729   -0.4911    0.5093 C   0  0
    9.1771   -0.9761    0.5343 C   0  0
   10.2262   -0.0997    0.6511 C   0  0
    9.9460    1.2459    0.7406 C   0  0
    8.6560    1.7167    0.7151 C   0  0
    4.7082    0.1213   -0.7715 C   0  0
    3.6267   -0.7537   -0.8784 C   0  0
   -1.0269    0.6971    0.1419 H   0  0
   -3.1362    1.8795    0.1051 H   0  0
   -6.2930    0.2342   -0.8030 H   0  0
   -5.4850    1.8139   -0.6390 H   0  0
   -6.2867   -0.1018    1.6106 H   0  0
   -4.2292    1.1004    2.1826 H   0  0
   -4.9896    2.6666    1.8013 H   0  0
   -6.2557    2.7176    3.7126 H   0  0
   -5.0320    1.5179    4.2886 H   0  0
   -6.5415    0.8910    3.6039 H   0  0
   -5.2082   -1.7854   -0.3892 H   0  0
   -3.0794   -3.0326   -0.3571 H   0  0
    0.6902   -0.3598    0.1642 H   0  0
    1.9690   -2.8404   -0.8125 H   0  0
    1.8123   -2.8756    0.9520 H   0  0
    3.0730   -1.3267    2.3709 H   0  0
    4.9947    0.2283    2.5541 H   0  0
    7.0309   -1.1656    0.4177 H   0  0
    9.3441   -2.0421    0.4608 H   0  0
   11.2489   -0.4876    0.6702 H   0  0
   10.7839    1.9284    0.8325 H   0  0
    8.4547    2.7907    0.7876 H   0  0
    5.1710    0.5312   -1.6628 H   0  0
    3.2672   -1.0078   -1.8846 H   0  0
  1  2  2  0  0  0
  2 16  1  0  0  0
  2  3  1  0  0  0
  3  4  2  0  0  0
  4  5  1  0  0  0
  5  6  2  0  0  0
  6 14  1  0  0  0
  6  7  1  0  0  0
  7  8  1  0  0  0
  8 11  1  0  0  0
  8  9  1  0  0  0
  9 10  1  0  0  0
 11 13  2  0  0  0
 11 12  1  0  0  0
 14 15  2  0  0  0
 15  3  1  0  0  0
 16 17  1  0  0  0
 17 18  1  0  0  0
 18 19  2  0  0  0
 19 20  1  0  0  0
 20 21  2  0  0  0
 21 29  1  0  0  0
 21 22  1  0  0  0
 22 23  1  0  0  0
 23 24  2  0  0  0
 24 25  1  0  0  0
 25 26  2  0  0  0
 26 27  1  0  0  0
 27 28  2  0  0  0
 28 23  1  0  0  0
 29 30  2  0  0  0
 30 18  1  0  0  0
  4 31  1  0  0  0
  5 32  1  0  0  0
  7 33  1  0  0  0
  7 34  1  0  0  0
  8 35  1  0  0  0
  9 36  1  0  0  0
  9 37  1  0  0  0
 10 38  1  0  0  0
 10 39  1  0  0  0
 10 40  1  0  0  0
 14 41  1  0  0  0
 15 42  1  0  0  0
 16 43  1  0  0  0
 17 44  1  0  0  0
 17 45  1  0  0  0
 19 46  1  0  0  0
 20 47  1  0  0  0
 24 48  1  0  0  0
 25 49  1  0  0  0
 26 50  1  0  0  0
 27 51  1  0  0  0
 28 52  1  0  0  0
 29 53  1  0  0  0
 30 54  1  0  0  0
M  CHG  1  12  -1
M  END
> <pIC50>
4.921

$$$$
D3_21
  DSViewer          3D                             0

 46 47  0  0  0  0  0  0  0  0999 V2000
    0.3979   -1.7029    1.5054 O   0  0
   -0.1589   -1.4747    0.4248 C   0  0
   -1.5468   -0.9996    0.4418 C   0  0
   -1.8447    0.3444    0.4981 C   0  0
   -3.1253    0.8371    0.5158 C   0  0
   -4.1974   -0.0665    0.4747 C   0  0
   -5.5254    0.5331    0.5092 C   0  0
   -6.1371    0.9558   -0.7556 C   0  0  2  0  0  0
   -7.4896    1.6004   -0.4239 C   0  0
   -8.3894    0.6073    0.2782 C   0  0
   -6.3751   -0.0315   -1.7933 C   0  0
   -6.2794   -1.3928   -1.7229 O   0  5
   -6.7253    0.4456   -2.9369 O   0  0
   -3.9362   -1.4184    0.4184 C   0  0
   -2.6301   -1.8519    0.4030 C   0  0
    0.5574   -1.6784   -0.7814 N   0  0
    1.9025   -2.1278   -0.8747 C   0  0
    2.9345   -1.2475   -0.3255 C   0  0
    2.6096   -0.0292    0.2012 C   0  0
    3.5522    0.8498    0.7188 C   0  0
    4.8649    0.4346    0.6791 C   0  0
    5.2032   -0.7862    0.1521 C   0  0
    4.2518   -1.6393   -0.3542 C   0  0
    4.6607   -2.9659   -0.9226 C   0  0
    4.0764   -3.9795   -0.2009 F   0  0
    4.3643   -3.0465   -2.2757 F   0  0
    6.0211   -3.0757   -0.8129 F   0  0
   -1.0165    1.0500    0.5301 H   0  0
   -3.3032    1.9211    0.5614 H   0  0
   -6.2155   -0.1777    1.0546 H   0  0
   -5.4884    1.4274    1.1971 H   0  0
   -5.5232    1.8082   -1.1813 H   0  0
   -7.9872    1.9775   -1.3301 H   0  0
   -7.3547    2.4668    0.2570 H   0  0
   -8.1122    0.5100    1.3582 H   0  0
   -8.4536   -0.3584   -0.2417 H   0  0
   -9.4093    1.0818    0.2958 H   0  0
   -4.7775   -2.1231    0.3951 H   0  0
   -2.4212   -2.9169    0.3583 H   0  0
    0.0130   -1.4679   -1.6710 H   0  0
    1.9453   -3.1220   -0.3359 H   0  0
    2.1946   -2.4005   -1.9274 H   0  0
    1.5759    0.3384    0.2371 H   0  0
    3.2900    1.8077    1.1326 H   0  0
    5.6890    1.0468    1.0591 H   0  0
    6.2597   -1.0983    0.1301 H   0  0
  1  2  2  0  0  0
  2 16  1  0  0  0
  2  3  1  0  0  0
  3  4  2  0  0  0
  4  5  1  0  0  0
  5  6  2  0  0  0
  6 14  1  0  0  0
  6  7  1  0  0  0
  7  8  1  0  0  0
  8 11  1  0  0  0
  8  9  1  0  0  0
  9 10  1  0  0  0
 11 13  2  0  0  0
 11 12  1  0  0  0
 14 15  2  0  0  0
 15  3  1  0  0  0
 16 17  1  0  0  0
 17 18  1  0  0  0
 18 19  2  0  0  0
 19 20  1  0  0  0
 20 21  2  0  0  0
 21 22  1  0  0  0
 22 23  2  0  0  0
 23 24  1  0  0  0
 23 18  1  0  0  0
 24 27  1  0  0  0
 24 26  1  0  0  0
 24 25  1  0  0  0
  4 28  1  0  0  0
  5 29  1  0  0  0
  7 30  1  0  0  0
  7 31  1  0  0  0
  8 32  1  0  0  0
  9 33  1  0  0  0
  9 34  1  0  0  0
 10 35  1  0  0  0
 10 36  1  0  0  0
 10 37  1  0  0  0
 14 38  1  0  0  0
 15 39  1  0  0  0
 16 40  1  0  0  0
 17 41  1  0  0  0
 17 42  1  0  0  0
 19 43  1  0  0  0
 20 44  1  0  0  0
 21 45  1  0  0  0
 22 46  1  0  0  0
M  CHG  1  12  -1
M  END
> <pIC50>
5.796

$$$$
D3_10
  DSViewer          3D                             0

 53 54  0  0  0  0  0  0  0  0999 V2000
    0.1726   -2.1218    1.4937 O   0  0
   -0.3306   -1.5605    0.5091 C   0  0
   -1.7289   -1.0771    0.4337 C   0  0
   -2.0377    0.2367    0.1764 C   0  0
   -3.3209    0.6860    0.0168 C   0  0
   -4.4009   -0.1916    0.1101 C   0  0
   -5.7348    0.3305   -0.1686 C   0  0
   -6.5352    0.8968    0.9581 C   0  0  2  0  0  0
   -6.8535   -0.1466    2.0298 C   0  0
   -7.6588   -1.2988    1.4639 C   0  0
   -7.8477    1.3896    0.3865 C   0  0
   -8.8550    1.9528    1.1031 O   0  0
  -10.0557    2.3717    0.4081 C   0  0
  -10.6822    1.1774   -0.2671 C   0  0
   -8.0086    1.2552   -0.8757 O   0  0
   -4.1024   -1.5156    0.3733 C   0  0
   -2.7809   -1.9596    0.5347 C   0  0
    0.5136   -1.3749   -0.6475 N   0  0
    1.8446   -1.7680   -0.8221 C   0  0
    2.9407   -1.0047   -0.2857 C   0  0
    4.2240   -1.5037   -0.5151 C   0  0
    5.3536   -0.8644   -0.0890 C   0  0
    5.2384    0.3316    0.6026 C   0  0
    6.4853    1.0084    1.0379 C   0  0
    7.5384    0.5328    0.2670 F   0  0
    6.4561    2.3713    0.8851 F   0  0
    6.7474    0.6057    2.3264 F   0  0
    3.9691    0.8292    0.8312 C   0  0
    2.8268    0.1643    0.3901 C   0  0
   -1.2272    0.9380    0.0965 H   0  0
   -3.5550    1.7435   -0.1823 H   0  0
   -6.3673   -0.4092   -0.7491 H   0  0
   -5.6440    1.1863   -0.9226 H   0  0
   -6.0782    1.7590    1.4691 H   0  0
   -7.5193    0.4043    2.7541 H   0  0
   -5.9148   -0.4561    2.4829 H   0  0
   -7.9673   -1.1442    0.4276 H   0  0
   -7.1343   -2.2563    1.5151 H   0  0
   -8.6143   -1.4152    2.0466 H   0  0
   -9.6972    3.0983   -0.3751 H   0  0
  -10.7616    2.8530    1.1034 H   0  0
  -10.2627    0.2658    0.2277 H   0  0
  -10.4097    1.1221   -1.3438 H   0  0
  -11.7898    1.1662   -0.1740 H   0  0
   -4.9371   -2.1927    0.4504 H   0  0
   -2.6028   -3.0041    0.7319 H   0  0
    0.0256   -0.8738   -1.4424 H   0  0
    1.9218   -2.8804   -0.5547 H   0  0
    2.0281   -1.8217   -1.9598 H   0  0
    4.3689   -2.4498   -1.0646 H   0  0
    6.3695   -1.2574   -0.2647 H   0  0
    3.9101    1.7825    1.3765 H   0  0
    1.8647    0.6243    0.6161 H   0  0
  1  2  2  0  0  0
  2 18  1  0  0  0
  2  3  1  0  0  0
  3  4  2  0  0  0
  4  5  1  0  0  0
  5  6  2  0  0  0
  6 16  1  0  0  0
  6  7  1  0  0  0
  7  8  1  0  0  0
  8 11  1  0  0  0
  8  9  1  0  0  0
  9 10  1  0  0  0
 11 15  2  0  0  0
 11 12  1  0  0  0
 12 13  1  0  0  0
 13 14  1  0  0  0
 16 17  2  0  0  0
 17  3  1  0  0  0
 18 19  1  0  0  0
 19 20  1  0  0  0
 20 21  2  0  0  0
 21 22  1  0  0  0
 22 23  2  0  0  0
 23 28  1  0  0  0
 23 24  1  0  0  0
 24 27  1  0  0  0
 24 26  1  0  0  0
 24 25  1  0  0  0
 28 29  2  0  0  0
 29 20  1  0  0  0
  4 30  1  0  0  0
  5 31  1  0  0  0
  7 32  1  0  0  0
  7 33  1  0  0  0
  8 34  1  0  0  0
  9 35  1  0  0  0
  9 36  1  0  0  0
 10 37  1  0  0  0
 10 38  1  0  0  0
 10 39  1  0  0  0
 13 40  1  0  0  0
 13 41  1  0  0  0
 14 42  1  0  0  0
 14 43  1  0  0  0
 14 44  1  0  0  0
 16 45  1  0  0  0
 17 46  1  0  0  0
 18 47  1  0  0  0
 19 48  1  0  0  0
 19 49  1  0  0  0
 21 50  1  0  0  0
 22 51  1  0  0  0
 28 52  1  0  0  0
 29 53  1  0  0  0
M  END
> <pIC50>
6.244

$$$$
D3_13
  DSViewer          3D                             0

 50 51  0  0  0  0  0  0  0  0999 V2000
    0.3884   -2.0385    1.4556 O   0  0
   -0.1674   -1.5447    0.4162 C   0  0
   -1.4911   -0.9577    0.5368 C   0  0
   -2.5967   -1.7615    0.3581 C   0  0
   -3.8752   -1.2675    0.4581 C   0  0
   -4.1256    0.0837    0.7479 C   0  0
   -5.5257    0.5176    0.8779 C   0  0
   -6.1996    0.7353   -0.4384 C   0  0  1  0  0  0
   -7.6855    1.0693   -0.2090 C   0  0
   -8.3891   -0.0378    0.5044 C   0  0
   -5.5456    1.7617   -1.2368 C   0  0
   -6.0591    2.0108   -2.5255 O   0  0
   -5.5110    2.9821   -3.3940 C   0  0
   -5.5509    4.3795   -2.8282 C   0  0
   -4.5770    2.4502   -0.9080 O   0  0
   -3.0188    0.8778    0.9260 C   0  0
   -1.7268    0.3599    0.8203 C   0  0
    0.5474   -1.5983   -0.8094 N   0  0
    1.8586   -2.1814   -0.9203 C   0  0
    2.8902   -1.2657   -0.3630 C   0  0
    2.5832   -0.0221    0.1469 C   0  0
    3.5590    0.8111    0.6597 C   0  0
    4.8906    0.3979    0.6684 C   0  0
    6.1105    1.4911    1.3320 Cl  0  0
    5.2088   -0.8353    0.1648 C   0  0
    4.2171   -1.6369   -0.3362 C   0  0
   -2.4165   -2.8100    0.1333 H   0  0
   -4.7141   -1.9460    0.3075 H   0  0
   -6.1123   -0.1883    1.5175 H   0  0
   -5.5154    1.4870    1.4534 H   0  0
   -6.1741   -0.2742   -0.9595 H   0  0
   -7.7221    2.0069    0.3821 H   0  0
   -8.1119    1.2956   -1.2041 H   0  0
   -9.3425   -0.2839   -0.0324 H   0  0
   -7.7799   -0.9560    0.6191 H   0  0
   -8.6928    0.2794    1.5220 H   0  0
   -6.1106    2.9120   -4.3364 H   0  0
   -4.4649    2.6872   -3.6803 H   0  0
   -4.6294    4.8964   -3.2258 H   0  0
   -5.5420    4.4037   -1.7397 H   0  0
   -6.4409    4.9483   -3.2287 H   0  0
   -3.1400    1.9360    1.1832 H   0  0
   -0.8716    1.0111    0.9650 H   0  0
    0.1050   -1.2010   -1.6584 H   0  0
    1.8384   -3.1416   -0.3254 H   0  0
    2.1095   -2.4796   -1.9519 H   0  0
    1.5757    0.3206    0.1534 H   0  0
    3.3286    1.7935    1.0647 H   0  0
    6.2164   -1.1665    0.1632 H   0  0
    4.4774   -2.6169   -0.7347 H   0  0
  1  2  2  0  0  0
  2 18  1  0  0  0
  2  3  1  0  0  0
  3  4  2  0  0  0
  4  5  1  0  0  0
  5  6  2  0  0  0
  6 16  1  0  0  0
  6  7  1  0  0  0
  7  8  1  0  0  0
  8 11  1  0  0  0
  8  9  1  0  0  0
  9 10  1  0  0  0
 11 15  2  0  0  0
 11 12  1  0  0  0
 12 13  1  0  0  0
 13 14  1  0  0  0
 16 17  2  0  0  0
 17  3  1  0  0  0
 18 19  1  0  0  0
 19 20  1  0  0  0
 20 21  2  0  0  0
 21 22  1  0  0  0
 22 23  2  0  0  0
 23 25  1  0  0  0
 23 24  1  0  0  0
 25 26  2  0  0  0
 26 20  1  0  0  0
  4 27  1  0  0  0
  5 28  1  0  0  0
  7 29  1  0  0  0
  7 30  1  0  0  0
  8 31  1  0  0  0
  9 32  1  0  0  0
  9 33  1  0  0  0
 10 34  1  0  0  0
 10 35  1  0  0  0
 10 36  1  0  0  0
 13 37  1  0  0  0
 13 38  1  0  0  0
 14 39  1  0  0  0
 14 40  1  0  0  0
 14 41  1  0  0  0
 16 42  1  0  0  0
 17 43  1  0  0  0
 18 44  1  0  0  0
 19 45  1  0  0  0
 19 46  1  0  0  0
 21 47  1  0  0  0
 22 48  1  0  0  0
 25 49  1  0  0  0
 26 50  1  0  0  0
M  END
> <pIC50>
5.77

$$$$
D3_09
  DSViewer          3D                             0

 50 51  0  0  0  0  0  0  0  0999 V2000
    1.9307   -2.9529   -1.2780 O   0  0
    1.8259   -1.9310   -0.5712 C   0  0
    2.9893   -1.1163   -0.2138 C   0  0
    4.0138   -1.0508   -1.1507 C   0  0
    5.0859   -0.2607   -0.8699 C   0  0
    5.1874    0.4627    0.2944 C   0  0
    6.3354    1.3431    0.4997 C   0  0
    7.5332    0.8126    1.1702 C   0  0  1  0  0  0
    7.3636    0.4297    2.6202 C   0  0
    6.9814    1.6033    3.4629 C   0  0
    8.2180   -0.3192    0.5217 C   0  0
    9.5835   -0.2685    0.3234 O   0  0
   10.3362   -1.2774   -0.2660 C   0  0
    9.9628   -1.6681   -1.6535 C   0  0
    7.6213   -1.3526    0.1330 O   0  0
    4.1640    0.3786    1.2074 C   0  0
    3.0658   -0.4100    0.9527 C   0  0
    0.5200   -1.5424   -0.1003 N   0  0
   -0.6782   -2.2584   -0.4106 C   0  0
   -1.8672   -1.3862   -0.2497 C   0  0
   -1.8035   -0.0369   -0.1140 C   0  0
   -2.9503    0.7523    0.0575 C   0  0
   -4.1693    0.1246    0.0854 C   0  0
   -5.2605    0.9172    0.2545 F   0  0
   -4.2610   -1.2445   -0.0515 C   0  0
   -3.1263   -1.9957   -0.2173 C   0  0
    3.9633   -1.6063   -2.0700 H   0  0
    5.8920   -0.1916   -1.5974 H   0  0
    5.9687    2.2539    1.0425 H   0  0
    6.6878    1.7868   -0.4859 H   0  0
    8.2850    1.6830    1.1725 H   0  0
    6.6241   -0.4043    2.7156 H   0  0
    8.3306    0.0037    2.9858 H   0  0
    7.9415    2.0044    3.8978 H   0  0
    6.2870    1.3480    4.2966 H   0  0
    6.6030    2.4160    2.8344 H   0  0
   11.3994   -0.8818   -0.3016 H   0  0
   10.4289   -2.1834    0.3806 H   0  0
    9.3855   -0.9180   -2.1914 H   0  0
    9.4772   -2.6763   -1.6665 H   0  0
   10.9050   -1.8248   -2.2406 H   0  0
    4.1896    0.9259    2.1526 H   0  0
    2.2422   -0.4816    1.6825 H   0  0
    0.5524   -0.6729    0.5135 H   0  0
   -0.7348   -3.1665    0.2465 H   0  0
   -0.6763   -2.6278   -1.4682 H   0  0
   -0.8584    0.5112   -0.1391 H   0  0
   -2.8345    1.8140    0.1596 H   0  0
   -5.2524   -1.6855   -0.0236 H   0  0
   -3.2000   -3.0882   -0.3313 H   0  0
  1  2  2  0  0  0
  2 18  1  0  0  0
  2  3  1  0  0  0
  3  4  2  0  0  0
  4  5  1  0  0  0
  5  6  2  0  0  0
  6 16  1  0  0  0
  6  7  1  0  0  0
  7  8  1  0  0  0
  8 11  1  0  0  0
  8  9  1  0  0  0
  9 10  1  0  0  0
 11 15  2  0  0  0
 11 12  1  0  0  0
 12 13  1  0  0  0
 13 14  1  0  0  0
 16 17  2  0  0  0
 17  3  1  0  0  0
 18 19  1  0  0  0
 19 20  1  0  0  0
 20 21  2  0  0  0
 21 22  1  0  0  0
 22 23  2  0  0  0
 23 25  1  0  0  0
 23 24  1  0  0  0
 25 26  2  0  0  0
 26 20  1  0  0  0
  4 27  1  0  0  0
  5 28  1  0  0  0
  7 29  1  0  0  0
  7 30  1  0  0  0
  8 31  1  0  0  0
  9 32  1  0  0  0
  9 33  1  0  0  0
 10 34  1  0  0  0
 10 35  1  0  0  0
 10 36  1  0  0  0
 13 37  1  0  0  0
 13 38  1  0  0  0
 14 39  1  0  0  0
 14 40  1  0  0  0
 14 41  1  0  0  0
 16 42  1  0  0  0
 17 43  1  0  0  0
 18 44  1  0  0  0
 19 45  1  0  0  0
 19 46  1  0  0  0
 21 47  1  0  0  0
 22 48  1  0  0  0
 25 49  1  0  0  0
 26 50  1  0  0  0
M  END
> <pIC50>
5.658

$$$$
D3_14
  DSViewer          3D                             0

 53 54  0  0  0  0  0  0  0  0999 V2000
    0.1876   -1.6684    1.8257 O   0  0
   -0.2975   -1.5220    0.7019 C   0  0
   -1.7130   -1.0846    0.5284 C   0  0
   -1.8806    0.2733    0.6063 C   0  0
   -3.0997    0.7969    0.2807 C   0  0
   -4.1513   -0.0238   -0.1171 C   0  0
   -5.3876    0.6592   -0.5156 C   0  0
   -6.2128    0.9094    0.7421 C   0  0  2  0  0  0
   -6.4354   -0.4311    1.4102 C   0  0
   -7.2020   -0.2790    2.6805 C   0  0
   -7.4274    1.6570    0.5170 C   0  0
   -8.7110    1.2006    0.9340 O   0  0
   -9.7782    2.1389    0.6084 C   0  0
  -11.0647    1.5177    1.0714 C   0  0
   -7.3990    2.7726   -0.0631 O   0  0
   -3.9501   -1.3656   -0.1798 C   0  0
   -2.6820   -1.9243    0.1550 C   0  0
    0.3983   -1.7058   -0.5002 N   0  0
    1.7616   -1.9978   -0.8148 C   0  0
    2.6444   -0.8545   -0.4467 C   0  0
    2.9719   -0.4882    0.8131 C   0  0
    3.8324    0.5888    1.1159 C   0  0
    4.3357    1.2697    0.0262 C   0  0
    5.1536    2.3111    0.3206 F   0  0
    4.0055    0.8997   -1.2744 C   0  0
    3.1670   -0.1564   -1.5354 C   0  0
    2.8720   -0.4989   -2.9228 C   0  0
    3.7832   -1.5440   -3.2840 F   0  0
    1.6540   -0.9042   -3.2785 F   0  0
    3.3035    0.5554   -3.7488 F   0  0
   -1.0760    0.9041    0.9129 H   0  0
   -3.2727    1.8677    0.3198 H   0  0
   -5.1299    1.5998   -1.0248 H   0  0
   -5.9896    0.0255   -1.2247 H   0  0
   -5.5433    1.4881    1.4164 H   0  0
   -5.5067   -0.9836    1.5998 H   0  0
   -7.0503   -1.0539    0.6961 H   0  0
   -7.0679    0.7961    3.0323 H   0  0
   -8.2582   -0.4928    2.4948 H   0  0
   -6.7418   -0.9349    3.4599 H   0  0
   -9.5956    3.0723    1.2177 H   0  0
   -9.7501    2.3988   -0.4378 H   0  0
  -10.8986    0.5177    1.5505 H   0  0
  -11.5675    2.1956    1.8148 H   0  0
  -11.7693    1.3546    0.2149 H   0  0
   -4.7336   -2.0420   -0.4780 H   0  0
   -2.6010   -2.9956    0.0820 H   0  0
   -0.2780   -1.6065   -1.3754 H   0  0
    1.9806   -2.4977   -1.7394 H   0  0
    2.0852   -2.8051   -0.0502 H   0  0
    2.6119   -1.0378    1.6668 H   0  0
    4.0255    0.8030    2.1461 H   0  0
    4.4564    1.5080   -2.0484 H   0  0
  1  2  2  0  0  0
  2 18  1  0  0  0
  2  3  1  0  0  0
  3  4  2  0  0  0
  4  5  1  0  0  0
  5  6  2  0  0  0
  6 16  1  0  0  0
  6  7  1  0  0  0
  7  8  1  0  0  0
  8 11  1  0  0  0
  8  9  1  0  0  0
  9 10  1  0  0  0
 11 15  2  0  0  0
 11 12  1  0  0  0
 12 13  1  0  0  0
 13 14  1  0  0  0
 16 17  2  0  0  0
 17  3  1  0  0  0
 18 19  1  0  0  0
 19 20  1  0  0  0
 20 21  2  0  0  0
 21 22  1  0  0  0
 22 23  2  0  0  0
 23 25  1  0  0  0
 23 24  1  0  0  0
 25 26  2  0  0  0
 26 27  1  0  0  0
 26 20  1  0  0  0
 27 30  1  0  0  0
 27 29  1  0  0  0
 27 28  1  0  0  0
  4 31  1  0  0  0
  5 32  1  0  0  0
  7 33  1  0  0  0
  7 34  1  0  0  0
  8 35  1  0  0  0
  9 36  1  0  0  0
  9 37  1  0  0  0
 10 38  1  0  0  0
 10 39  1  0  0  0
 10 40  1  0  0  0
 13 41  1  0  0  0
 13 42  1  0  0  0
 14 43  1  0  0  0
 14 44  1  0  0  0
 14 45  1  0  0  0
 16 46  1  0  0  0
 17 47  1  0  0  0
 18 48  1  0  0  0
 19 49  1  0  0  0
 19 50  1  0  0  0
 21 51  1  0  0  0
 22 52  1  0  0  0
 25 53  1  0  0  0
M  END
> <pIC50>
6.921

$$$$
D3_11
  DSViewer          3D                             0

 54 55  0  0  0  0  0  0  0  0999 V2000
   -0.5948   -3.2496   -0.1623 O   0  0
   -0.5917   -1.9769   -0.0656 C   0  0
   -1.8447   -1.2606   -0.0829 C   0  0
   -1.9670    0.0989    0.0272 C   0  0
   -3.1851    0.7402    0.0053 C   0  0
   -4.3385    0.0073   -0.1315 C   0  0
   -5.6510    0.6302   -0.1895 C   0  0
   -6.3905    0.8781    1.0596 C   0  0  2  0  0  0
   -6.5535   -0.2212    2.0343 C   0  0
   -5.2836   -0.7738    2.6081 C   0  0
   -7.7165    1.5388    0.7598 C   0  0
   -8.6093    1.8831    1.7355 O   0  0
   -9.8549    2.5061    1.4256 C   0  0
   -9.6272    3.8236    0.7141 C   0  0
   -7.9683    1.7623   -0.4462 O   0  0
   -4.2435   -1.3610   -0.2441 C   0  0
   -3.0156   -1.9751   -0.2193 C   0  0
    0.6531   -1.3263    0.0549 N   0  0
    1.8760   -2.1260    0.0642 C   0  0
    3.0386   -1.2033    0.1976 C   0  0
    3.6704   -0.6709   -0.9077 C   0  0
    4.7454    0.1817   -0.7613 C   0  0
    5.2412    0.5443    0.4741 C   0  0
    6.3288    1.4079    0.5826 O   0  0
    7.6278    0.7957    0.6059 C   0  0
    8.6224    1.7215    0.7135 F   0  0
    7.6607    0.0105    1.7666 F   0  0
    7.7878   -0.0686   -0.4596 F   0  0
    4.6091    0.0116    1.5789 C   0  0
    3.5341   -0.8410    1.4333 C   0  0
   -1.0376    0.6837    0.1371 H   0  0
   -3.1961    1.8183    0.0981 H   0  0
   -5.5203    1.5865   -0.7957 H   0  0
   -6.3538    0.0398   -0.8683 H   0  0
   -5.8304    1.7049    1.6098 H   0  0
   -7.1391    0.2116    2.9059 H   0  0
   -7.2335   -1.0365    1.6711 H   0  0
   -4.3745   -0.2227    2.3887 H   0  0
   -5.3345   -0.7790    3.7486 H   0  0
   -5.2405   -1.8642    2.3635 H   0  0
  -10.4100    2.6850    2.3665 H   0  0
  -10.4930    1.8302    0.7992 H   0  0
   -9.7539    3.6415   -0.3844 H   0  0
  -10.2923    4.6211    1.0922 H   0  0
   -8.5775    4.1281    0.9147 H   0  0
   -5.1560   -1.9804   -0.3558 H   0  0
   -2.9967   -3.0771   -0.3137 H   0  0
    0.6854   -0.2942    0.1348 H   0  0
    1.9922   -2.7091   -0.8512 H   0  0
    1.7889   -2.8295    0.9085 H   0  0
    3.3000   -0.9400   -1.8958 H   0  0
    5.2565    0.6119   -1.6336 H   0  0
    4.9989    0.2968    2.5501 H   0  0
    3.0537   -1.2473    2.3290 H   0  0
  1  2  2  0  0  0
  2 18  1  0  0  0
  2  3  1  0  0  0
  3  4  2  0  0  0
  4  5  1  0  0  0
  5  6  2  0  0  0
  6 16  1  0  0  0
  6  7  1  0  0  0
  7  8  1  0  0  0
  8 11  1  0  0  0
  8  9  1  0  0  0
  9 10  1  0  0  0
 11 15  2  0  0  0
 11 12  1  0  0  0
 12 13  1  0  0  0
 13 14  1  0  0  0
 16 17  2  0  0  0
 17  3  1  0  0  0
 18 19  1  0  0  0
 19 20  1  0  0  0
 20 21  2  0  0  0
 21 22  1  0  0  0
 22 23  2  0  0  0
 23 29  1  0  0  0
 23 24  1  0  0  0
 24 25  1  0  0  0
 25 28  1  0  0  0
 25 27  1  0  0  0
 25 26  1  0  0  0
 29 30  2  0  0  0
 30 20  1  0  0  0
  4 31  1  0  0  0
  5 32  1  0  0  0
  7 33  1  0  0  0
  7 34  1  0  0  0
  8 35  1  0  0  0
  9 36  1  0  0  0
  9 37  1  0  0  0
 10 38  1  0  0  0
 10 39  1  0  0  0
 10 40  1  0  0  0
 13 41  1  0  0  0
 13 42  1  0  0  0
 14 43  1  0  0  0
 14 44  1  0  0  0
 14 45  1  0  0  0
 16 46  1  0  0  0
 17 47  1  0  0  0
 18 48  1  0  0  0
 19 49  1  0  0  0
 19 50  1  0  0  0
 21 51  1  0  0  0
 22 52  1  0  0  0
 29 53  1  0  0  0
 30 54  1  0  0  0
M  END
> <pIC50>
6.046

$$$$
D3_12
  DSViewer          3D                             0

 54 55  0  0  0  0  0  0  0  0999 V2000
    0.5980   -1.9131    1.5371 O   0  0
    0.0293   -1.3304    0.5783 C   0  0
   -1.2227   -0.6290    0.7886 C   0  0
   -1.8031    0.2219   -0.1206 C   0  0
   -3.0214    0.8601    0.1605 C   0  0
   -3.6846    0.6647    1.3480 C   0  0
   -4.9528    1.2734    1.7345 C   0  0
   -6.1526    0.4606    1.3868 C   0  0  2  0  0  0
   -6.1978    0.1642   -0.0916 C   0  0
   -6.2709    1.3765   -0.9571 C   0  0
   -7.3959    1.1477    1.8343 C   0  0
   -8.6589    0.6531    1.6401 O   0  0
   -9.8375    1.3299    2.0793 C   0  0
   -9.7242    1.4685    3.5866 C   0  0
   -7.2756    2.2483    2.4262 O   0  0
   -3.0728   -0.1983    2.2416 C   0  0
   -1.8933   -0.8252    1.9872 C   0  0
    0.6109   -1.3577   -0.7127 N   0  0
    1.8813   -2.0568   -0.9635 C   0  0
    2.9664   -1.2029   -0.4409 C   0  0
    4.2679   -1.6529   -0.5527 C   0  0
    5.3019   -0.8673   -0.0719 C   0  0
    5.0632    0.3360    0.5072 C   0  0
    6.1016    1.1090    0.9821 O   0  0
    7.4217    0.6415    0.8626 C   0  0
    3.7749    0.7979    0.6262 C   0  0
    2.7200    0.0189    0.1468 C   0  0
   -1.3362    0.4200   -1.0676 H   0  0
   -3.4557    1.5338   -0.5727 H   0  0
   -5.0131    2.3235    1.3534 H   0  0
   -4.9606    1.3968    2.8563 H   0  0
   -6.1009   -0.5024    1.9294 H   0  0
   -7.0528   -0.4841   -0.3156 H   0  0
   -5.2711   -0.3876   -0.3544 H   0  0
   -5.7867    1.1403   -1.9277 H   0  0
   -5.7433    2.2566   -0.5486 H   0  0
   -7.3374    1.6332   -1.2303 H   0  0
   -9.8532    2.3486    1.6534 H   0  0
  -10.7380    0.7822    1.7566 H   0  0
  -10.7253    1.3151    4.0782 H   0  0
   -9.3199    2.4620    3.8803 H   0  0
   -9.0503    0.7125    4.0290 H   0  0
   -3.5560   -0.3833    3.1893 H   0  0
   -1.4777   -1.4939    2.7509 H   0  0
    0.1238   -0.8758   -1.4839 H   0  0
    1.8421   -3.0391   -0.4321 H   0  0
    1.9398   -2.2422   -2.0524 H   0  0
    4.4543   -2.6023   -1.0100 H   0  0
    6.3006   -1.2623   -0.1825 H   0  0
    7.6451    0.5840   -0.2337 H   0  0
    7.5693   -0.3384    1.3244 H   0  0
    8.1160    1.3643    1.3607 H   0  0
    3.5605    1.7432    1.0784 H   0  0
    1.7276    0.4137    0.2567 H   0  0
  1  2  2  0  0  0
  2 18  1  0  0  0
  2  3  1  0  0  0
  3  4  2  0  0  0
  4  5  1  0  0  0
  5  6  2  0  0  0
  6 16  1  0  0  0
  6  7  1  0  0  0
  7  8  1  0  0  0
  8 11  1  0  0  0
  8  9  1  0  0  0
  9 10  1  0  0  0
 11 15  2  0  0  0
 11 12  1  0  0  0
 12 13  1  0  0  0
 13 14  1  0  0  0
 16 17  2  0  0  0
 17  3  1  0  0  0
 18 19  1  0  0  0
 19 20  1  0  0  0
 20 21  2  0  0  0
 21 22  1  0  0  0
 22 23  2  0  0  0
 23 26  1  0  0  0
 23 24  1  0  0  0
 24 25  1  0  0  0
 26 27  2  0  0  0
 27 20  1  0  0  0
  4 28  1  0  0  0
  5 29  1  0  0  0
  7 30  1  0  0  0
  7 31  1  0  0  0
  8 32  1  0  0  0
  9 33  1  0  0  0
  9 34  1  0  0  0
 10 35  1  0  0  0
 10 36  1  0  0  0
 10 37  1  0  0  0
 13 38  1  0  0  0
 13 39  1  0  0  0
 14 40  1  0  0  0
 14 41  1  0  0  0
 14 42  1  0  0  0
 16 43  1  0  0  0
 17 44  1  0  0  0
 18 45  1  0  0  0
 19 46  1  0  0  0
 19 47  1  0  0  0
 21 48  1  0  0  0
 22 49  1  0  0  0
 25 50  1  0  0  0
 25 51  1  0  0  0
 25 52  1  0  0  0
 26 53  1  0  0  0
 27 54  1  0  0  0
M  END
> <pIC50>
6.208

$$$$
D3_15
  DSViewer          3D                             0

 57 58  0  0  0  0  0  0  0  0999 V2000
    0.1254   -2.4272    1.5007 O   0  0
   -0.3410   -1.7914    0.4974 C   0  0
   -1.6668   -1.1935    0.4236 C   0  0
   -2.8376   -1.5862    0.9831 C   0  0
   -4.0434   -0.8748    0.8422 C   0  0
   -4.0785    0.2922    0.1225 C   0  0
   -5.2464    1.1504   -0.0394 C   0  0
   -6.0845    1.1004   -1.2331 C   0  0  2  0  0  0
   -6.8511    2.3947   -1.3928 C   0  0
   -7.7003    2.4762   -2.6058 C   0  0
   -6.8903   -0.0783   -1.4592 C   0  0
   -6.5711   -1.3535   -1.8440 O   0  0
   -7.5274   -2.3970   -2.0319 C   0  0
   -8.2112   -2.6723   -0.7314 C   0  0
   -8.1942    0.0412   -1.2719 O   0  0
   -2.8894    0.7170   -0.4543 C   0  0
   -1.7668    0.0459   -0.3243 C   0  0
    0.5030   -1.6083   -0.5886 N   0  0
    1.7878   -1.7699   -1.0480 C   0  0
    2.8768   -1.0433   -0.4033 C   0  0
    3.6517   -1.5448    0.6007 C   0  0
    4.8070   -0.9007    1.0459 C   0  0
    5.2216    0.3040    0.4651 C   0  0
    6.2797    1.0016    0.7672 O   0  0
    7.3353    1.6704    1.0899 C   0  0
    4.4018    0.7788   -0.5548 C   0  0
    3.2739    0.1405   -0.9679 C   0  0
    2.3820    0.8187   -1.9374 C   0  0
    1.3697    1.4801   -1.2040 F   0  0
    3.1247    1.9407   -2.4371 F   0  0
    1.9777    0.1861   -3.0244 F   0  0
   -2.8958   -2.5117    1.5609 H   0  0
   -4.9202   -1.3035    1.3463 H   0  0
   -5.8737    1.0885    0.8672 H   0  0
   -4.8363    2.2452    0.1129 H   0  0
   -5.3944    1.1910   -2.1887 H   0  0
   -7.3670    2.7476   -0.4902 H   0  0
   -6.0316    3.2164   -1.5766 H   0  0
   -7.0504    2.7193   -3.5263 H   0  0
   -8.3628    3.3882   -2.4893 H   0  0
   -8.3834    1.6638   -2.8023 H   0  0
   -7.0574   -3.3131   -2.4727 H   0  0
   -8.3254   -1.9706   -2.7155 H   0  0
   -8.1828   -1.7746   -0.0799 H   0  0
   -9.3061   -2.9530   -0.8435 H   0  0
   -7.6361   -3.4717   -0.1570 H   0  0
   -2.9942    1.6742   -1.0085 H   0  0
   -0.8795    0.3979   -0.7706 H   0  0
   -0.1239   -1.1935   -1.4822 H   0  0
    1.8095   -1.7973   -2.1457 H   0  0
    2.0273   -2.9181   -0.8580 H   0  0
    3.4119   -2.5122    1.0970 H   0  0
    5.4211   -1.2598    1.8407 H   0  0
    7.1215    2.5956    1.7202 H   0  0
    7.8517    2.1365    0.1348 H   0  0
    8.1518    1.1458    1.5754 H   0  0
    4.6879    1.7280   -1.0004 H   0  0
  1  2  2  0  0  0
  2 18  1  0  0  0
  2  3  1  0  0  0
  3  4  2  0  0  0
  4  5  1  0  0  0
  5  6  2  0  0  0
  6 16  1  0  0  0
  6  7  1  0  0  0
  7  8  1  0  0  0
  8 11  1  0  0  0
  8  9  1  0  0  0
  9 10  1  0  0  0
 11 15  2  0  0  0
 11 12  1  0  0  0
 12 13  1  0  0  0
 13 14  1  0  0  0
 16 17  2  0  0  0
 17  3  1  0  0  0
 18 19  1  0  0  0
 19 20  1  0  0  0
 20 21  2  0  0  0
 21 22  1  0  0  0
 22 23  2  0  0  0
 23 26  1  0  0  0
 23 24  1  0  0  0
 24 25  1  0  0  0
 26 27  2  0  0  0
 27 28  1  0  0  0
 27 20  1  0  0  0
 28 31  1  0  0  0
 28 30  1  0  0  0
 28 29  1  0  0  0
  4 32  1  0  0  0
  5 33  1  0  0  0
  7 34  1  0  0  0
  7 35  1  0  0  0
  8 36  1  0  0  0
  9 37  1  0  0  0
  9 38  1  0  0  0
 10 39  1  0  0  0
 10 40  1  0  0  0
 10 41  1  0  0  0
 13 42  1  0  0  0
 13 43  1  0  0  0
 14 44  1  0  0  0
 14 45  1  0  0  0
 14 46  1  0  0  0
 16 47  1  0  0  0
 17 48  1  0  0  0
 18 49  1  0  0  0
 19 50  1  0  0  0
 19 51  1  0  0  0
 21 52  1  0  0  0
 22 53  1  0  0  0
 25 54  1  0  0  0
 25 55  1  0  0  0
 25 56  1  0  0  0
 26 57  1  0  0  0
M  END
> <pIC50>
7.523

$$$$
D3_04
  DSViewer          3D                             0

 50 51  0  0  0  0  0  0  0  0999 V2000
    0.1245   -1.7873    1.6941 O   0  0
   -0.2742   -1.4888    0.5545 C   0  0
   -1.6244   -0.9866    0.3732 C   0  0
   -1.9163    0.3619    0.3181 C   0  0
   -3.2010    0.8380    0.1411 C   0  0
   -4.2801    0.0007    0.0081 C   0  0
   -5.6886    0.4209   -0.1553 C   0  0
   -6.4242    0.3787    1.1271 C   0  0  2  0  0  0
   -7.8934    0.7096    0.8416 C   0  0
   -8.6315    0.6570    2.1517 C   0  0
   -5.9225    1.2315    2.2043 C   0  0
   -6.4634    1.1134    3.5066 O   0  0
   -5.9814    1.9363    4.5469 C   0  0
   -6.2283    3.3788    4.1426 C   0  0
   -5.0255    2.1013    2.1124 O   0  0
   -3.9903   -1.3717    0.0627 C   0  0
   -2.7096   -1.8405    0.2387 C   0  0
    0.5788   -1.6375   -0.5540 N   0  0
    1.9270   -2.1267   -0.4631 C   0  0
    2.7845   -1.0453    0.0619 C   0  0
    4.1098   -1.3054    0.3182 C   0  0
    4.9536   -0.3379    0.8030 C   0  0
    4.4299    0.9103    1.0270 C   0  0
    3.1043    1.2225    0.7855 C   0  0
    2.2838    0.2112    0.2938 C   0  0
   -1.0651    1.0472    0.4238 H   0  0
   -3.3666    1.9019    0.0844 H   0  0
   -6.2378   -0.2746   -0.8612 H   0  0
   -5.7666    1.4102   -0.6673 H   0  0
   -6.3564   -0.6828    1.5077 H   0  0
   -7.9653    1.7083    0.4054 H   0  0
   -8.2869   -0.0229    0.1136 H   0  0
   -8.2739   -0.1490    2.8009 H   0  0
   -9.7091    0.4411    1.8758 H   0  0
   -8.5718    1.6161    2.7039 H   0  0
   -4.8898    1.7304    4.6966 H   0  0
   -6.5061    1.6776    5.4808 H   0  0
   -5.2957    3.7814    3.7259 H   0  0
   -6.6210    3.9833    4.9941 H   0  0
   -6.9940    3.4135    3.3208 H   0  0
   -4.8426   -2.0605   -0.0424 H   0  0
   -2.5025   -2.9180    0.2788 H   0  0
    0.2097   -1.3767   -1.4929 H   0  0
    1.9100   -3.0172    0.1990 H   0  0
    2.2992   -2.4817   -1.4473 H   0  0
    4.5264   -2.3081    0.1375 H   0  0
    5.9799   -0.6001    0.9842 H   0  0
    5.0641    1.7102    1.4113 H   0  0
    2.6862    2.2006    0.9592 H   0  0
    1.2364    0.4689    0.1053 H   0  0
  1  2  2  0  0  0
  2 18  1  0  0  0
  2  3  1  0  0  0
  3  4  2  0  0  0
  4  5  1  0  0  0
  5  6  2  0  0  0
  6 16  1  0  0  0
  6  7  1  0  0  0
  7  8  1  0  0  0
  8 11  1  0  0  0
  8  9  1  0  0  0
  9 10  1  0  0  0
 11 15  2  0  0  0
 11 12  1  0  0  0
 12 13  1  0  0  0
 13 14  1  0  0  0
 16 17  2  0  0  0
 17  3  1  0  0  0
 18 19  1  0  0  0
 19 20  1  0  0  0
 20 21  2  0  0  0
 21 22  1  0  0  0
 22 23  2  0  0  0
 23 24  1  0  0  0
 24 25  2  0  0  0
 25 20  1  0  0  0
  4 26  1  0  0  0
  5 27  1  0  0  0
  7 28  1  0  0  0
  7 29  1  0  0  0
  8 30  1  0  0  0
  9 31  1  0  0  0
  9 32  1  0  0  0
 10 33  1  0  0  0
 10 34  1  0  0  0
 10 35  1  0  0  0
 13 36  1  0  0  0
 13 37  1  0  0  0
 14 38  1  0  0  0
 14 39  1  0  0  0
 14 40  1  0  0  0
 16 41  1  0  0  0
 17 42  1  0  0  0
 18 43  1  0  0  0
 19 44  1  0  0  0
 19 45  1  0  0  0
 21 46  1  0  0  0
 22 47  1  0  0  0
 23 48  1  0  0  0
 24 49  1  0  0  0
 25 50  1  0  0  0
M  END
> <pIC50>
5.071

$$$$
D3_07
  DSViewer          3D                             0

 50 51  0  0  0  0  0  0  0  0999 V2000
   -0.1735   -2.2341    1.5131 O   0  0
   -0.3986   -1.5724    0.4411 C   0  0
   -1.7092   -0.9551    0.3229 C   0  0
   -2.7996   -1.7459    0.7158 C   0  0
   -4.0981   -1.2928    0.6159 C   0  0
   -4.3285   -0.0189    0.1153 C   0  0
   -5.7184    0.3981   -0.1245 C   0  0
   -6.4894    0.8846    1.0557 C   0  0  2  0  0  0
   -6.6051   -0.1950    2.1062 C   0  0
   -7.4184    0.2948    3.2963 C   0  0
   -7.8687    1.2306    0.5374 C   0  0
   -8.5272    0.3355   -0.2913 O   0  0
   -9.7897    0.5372   -0.8318 C   0  0
  -10.0879   -0.6777   -1.7155 C   0  0
   -8.4201    2.3116    0.8428 O   0  0
   -3.2855    0.7830   -0.2735 C   0  0
   -2.0039    0.2755   -0.1519 C   0  0
    0.6131   -1.4958   -0.5468 N   0  0
    1.9044   -2.1206   -0.4302 C   0  0
    3.0899   -1.3079   -0.3532 C   0  0
    4.1521   -1.6243   -1.2008 C   0  0
    5.3565   -0.9945   -1.1174 C   0  0
    5.5992   -0.0004   -0.1899 C   0  0
    4.5835    0.3346    0.6492 C   0  0
    3.3568   -0.3199    0.5537 C   0  0
    1.9639    0.2558    1.7290 Br  0  0
   -2.5919   -2.7135    1.0940 H   0  0
   -4.9324   -1.9139    0.9108 H   0  0
   -6.3034   -0.4211   -0.6547 H   0  0
   -5.6810    1.2152   -0.9324 H   0  0
   -5.9880    1.7546    1.5091 H   0  0
   -5.6348   -0.5016    2.5084 H   0  0
   -7.1641   -1.0332    1.6001 H   0  0
   -8.3417   -0.3218    3.4244 H   0  0
   -6.8228    0.1083    4.2105 H   0  0
   -7.6356    1.3574    3.2569 H   0  0
  -10.5854    0.5686   -0.0542 H   0  0
   -9.8727    1.4449   -1.4757 H   0  0
  -10.5938   -1.4894   -1.1559 H   0  0
   -9.1197   -1.0908   -2.1221 H   0  0
  -10.6522   -0.3206   -2.5791 H   0  0
   -3.4980    1.7697   -0.6532 H   0  0
   -1.1665    0.8891   -0.4623 H   0  0
    0.3878   -0.9449   -1.4250 H   0  0
    1.9971   -2.7500   -1.4084 H   0  0
    1.8950   -2.9396    0.3425 H   0  0
    4.0367   -2.3870   -1.9477 H   0  0
    6.1922   -1.2237   -1.7650 H   0  0
    6.5858    0.4874   -0.1468 H   0  0
    4.7007    1.1139    1.4099 H   0  0
  1  2  2  0  0  0
  2 18  1  0  0  0
  2  3  1  0  0  0
  3  4  2  0  0  0
  4  5  1  0  0  0
  5  6  2  0  0  0
  6 16  1  0  0  0
  6  7  1  0  0  0
  7  8  1  0  0  0
  8 11  1  0  0  0
  8  9  1  0  0  0
  9 10  1  0  0  0
 11 15  2  0  0  0
 11 12  1  0  0  0
 12 13  1  0  0  0
 13 14  1  0  0  0
 16 17  2  0  0  0
 17  3  1  0  0  0
 18 19  1  0  0  0
 19 20  1  0  0  0
 20 21  2  0  0  0
 21 22  1  0  0  0
 22 23  2  0  0  0
 23 24  1  0  0  0
 24 25  2  0  0  0
 25 26  1  0  0  0
 25 20  1  0  0  0
  4 27  1  0  0  0
  5 28  1  0  0  0
  7 29  1  0  0  0
  7 30  1  0  0  0
  8 31  1  0  0  0
  9 32  1  0  0  0
  9 33  1  0  0  0
 10 34  1  0  0  0
 10 35  1  0  0  0
 10 36  1  0  0  0
 13 37  1  0  0  0
 13 38  1  0  0  0
 14 39  1  0  0  0
 14 40  1  0  0  0
 14 41  1  0  0  0
 16 42  1  0  0  0
 17 43  1  0  0  0
 18 44  1  0  0  0
 19 45  1  0  0  0
 19 46  1  0  0  0
 21 47  1  0  0  0
 22 48  1  0  0  0
 23 49  1  0  0  0
 24 50  1  0  0  0
M  END
> <pIC50>
5.398

$$$$
D3_05
  DSViewer          3D                             0

 53 54  0  0  0  0  0  0  0  0999 V2000
   -0.0096   -2.2049    1.6347 O   0  0
   -0.2802   -1.5025    0.5681 C   0  0
   -1.5281   -0.7777    0.5293 C   0  0
   -2.3447   -0.8395    1.6843 C   0  0
   -3.5839   -0.2775    1.6660 C   0  0
   -4.0759    0.3599    0.5229 C   0  0
   -5.5575    0.4830    0.5264 C   0  0
   -6.0382    0.7080   -0.8988 C   0  0  2  0  0  0
   -5.9750    2.2558   -1.1331 C   0  0
   -6.8344    2.9881   -0.1237 C   0  0
   -7.4553    0.3272   -0.9264 C   0  0
   -8.6375    0.9554   -0.8942 O   0  0
   -9.7724    0.0174   -0.9958 C   0  0
  -11.0334    0.8444   -1.0339 C   0  0
   -7.5503   -1.0016   -1.0041 O   0  0
   -3.2846    0.4254   -0.5864 C   0  0
   -1.9981   -0.1587   -0.5684 C   0  0
    0.6622   -1.5208   -0.4645 N   0  0
    1.8679   -2.3089   -0.0746 C   0  0
    2.8891   -1.2660    0.0984 C   0  0
    3.4372   -0.6528   -1.0296 C   0  0
    4.5445    0.1775   -0.8946 C   0  0
    5.1177    0.4222    0.3291 C   0  0
    4.5580   -0.1861    1.4384 C   0  0
    3.4794   -1.0064    1.3271 C   0  0
    2.8377   -1.5370    2.5586 C   0  0
   -1.9144   -1.3275    2.5499 H   0  0
   -4.1783   -0.3219    2.5809 H   0  0
   -5.8924    1.3175    1.1636 H   0  0
   -6.0272   -0.4375    0.8900 H   0  0
   -5.4598    0.2206   -1.6267 H   0  0
   -4.9602    2.5642   -0.9438 H   0  0
   -6.2390    2.4366   -2.1707 H   0  0
   -6.2068    3.2707    0.7764 H   0  0
   -7.1736    3.9287   -0.5928 H   0  0
   -7.6861    2.4546    0.2662 H   0  0
   -9.5927   -0.6098   -1.8803 H   0  0
   -9.8091   -0.6438   -0.1242 H   0  0
  -11.3398    1.0761   -2.0832 H   0  0
  -11.8450    0.4375   -0.4086 H   0  0
  -10.7522    1.8458   -0.5576 H   0  0
   -3.6390    0.9032   -1.4564 H   0  0
   -1.4392   -0.0687   -1.4947 H   0  0
    0.5968   -1.0861   -1.3580 H   0  0
    1.7122   -2.9979    0.7236 H   0  0
    2.0660   -2.9203   -0.9983 H   0  0
    3.0390   -0.8404   -2.0104 H   0  0
    4.9812    0.6279   -1.7851 H   0  0
    5.9755    1.0531    0.4748 H   0  0
    4.9701   -0.0163    2.4301 H   0  0
    2.5797   -2.5963    2.5296 H   0  0
    1.9122   -0.8708    2.7147 H   0  0
    3.4587   -1.2962    3.4170 H   0  0
  1  2  2  0  0  0
  2 18  1  0  0  0
  2  3  1  0  0  0
  3  4  2  0  0  0
  4  5  1  0  0  0
  5  6  2  0  0  0
  6 16  1  0  0  0
  6  7  1  0  0  0
  7  8  1  0  0  0
  8 11  1  0  0  0
  8  9  1  0  0  0
  9 10  1  0  0  0
 11 15  2  0  0  0
 11 12  1  0  0  0
 12 13  1  0  0  0
 13 14  1  0  0  0
 16 17  2  0  0  0
 17  3  1  0  0  0
 18 19  1  0  0  0
 19 20  1  0  0  0
 20 21  2  0  0  0
 21 22  1  0  0  0
 22 23  2  0  0  0
 23 24  1  0  0  0
 24 25  2  0  0  0
 25 26  1  0  0  0
 25 20  1  0  0  0
  4 27  1  0  0  0
  5 28  1  0  0  0
  7 29  1  0  0  0
  7 30  1  0  0  0
  8 31  1  0  0  0
  9 32  1  0  0  0
  9 33  1  0  0  0
 10 34  1  0  0  0
 10 35  1  0  0  0
 10 36  1  0  0  0
 13 37  1  0  0  0
 13 38  1  0  0  0
 14 39  1  0  0  0
 14 40  1  0  0  0
 14 41  1  0  0  0
 16 42  1  0  0  0
 17 43  1  0  0  0
 18 44  1  0  0  0
 19 45  1  0  0  0
 19 46  1  0  0  0
 21 47  1  0  0  0
 22 48  1  0  0  0
 23 49  1  0  0  0
 24 50  1  0  0  0
 26 51  1  0  0  0
 26 52  1  0  0  0
 26 53  1  0  0  0
M  END
> <pIC50>
6.046

$$$$
D3_03
  DSViewer          3D                             0

 53 54  0  0  0  0  0  0  0  0999 V2000
    0.2183   -1.6116    1.6967 O   0  0
   -0.2961   -1.3301    0.6008 C   0  0
   -1.7068   -0.9125    0.4141 C   0  0
   -2.7079   -1.7725    0.7567 C   0  0
   -3.9973   -1.4678    0.5305 C   0  0
   -4.4430   -0.2315   -0.0766 C   0  0
   -5.8703   -0.1382   -0.2633 C   0  0
   -6.4917   -0.2172   -1.6291 C   0  0  2  0  0  0
   -6.5525    1.2211   -2.2438 C   0  0
   -7.1821    1.1360   -3.6281 C   0  0
   -7.9641   -0.4604   -1.4027 C   0  0
   -8.6692    0.2232   -0.4543 O   0  0
  -10.0621   -0.1749   -0.2412 C   0  0
   -9.9456   -1.6566    0.1896 C   0  0
   -8.5352   -1.3372   -2.0977 O   0  0
   -3.4303    0.5924   -0.3931 C   0  0
   -2.0698    0.2785   -0.1616 C   0  0
    0.5252   -1.4456   -0.5314 N   0  0
    1.7973   -1.8069   -0.8809 C   0  0
    2.9896   -1.2985   -0.2184 C   0  0
    3.4986   -1.6734    0.9920 C   0  0
    4.8002   -1.2931    1.3941 C   0  0
    5.6186   -0.5188    0.6153 C   0  0
    5.0923   -0.1318   -0.6302 C   0  0
    3.8673   -0.4917   -1.0252 C   0  0
    3.2235    0.0265   -2.2916 C   0  0
    4.0720    1.0545   -2.7679 F   0  0
    3.0120   -0.8140   -3.2880 F   0  0
    2.0513    0.7590   -1.9361 F   0  0
   -2.4668   -2.7434    1.2611 H   0  0
   -4.8278   -2.1502    0.7997 H   0  0
   -6.2960    0.8333    0.1628 H   0  0
   -6.4278   -0.8928    0.3553 H   0  0
   -6.0758   -0.8490   -2.3611 H   0  0
   -5.5616    1.6404   -2.3273 H   0  0
   -7.2866    1.7921   -1.6404 H   0  0
   -8.3042    1.2948   -3.5436 H   0  0
   -7.0748    0.1446   -4.0840 H   0  0
   -6.7977    1.9667   -4.2098 H   0  0
  -10.6481   -0.0958   -1.1421 H   0  0
  -10.4146    0.3945    0.6183 H   0  0
  -10.6600   -1.8835    0.9813 H   0  0
   -8.8917   -1.8680    0.5306 H   0  0
  -10.1132   -2.2916   -0.7008 H   0  0
   -3.6590    1.5393   -0.8459 H   0  0
   -1.3528    1.0368   -0.4695 H   0  0
   -0.0705   -1.1611   -1.4388 H   0  0
    1.8369   -2.9679   -0.4593 H   0  0
    1.9664   -2.1105   -1.9444 H   0  0
    2.8764   -2.2931    1.5986 H   0  0
    5.2337   -1.6438    2.3324 H   0  0
    6.5882   -0.1694    0.9348 H   0  0
    5.7722    0.4943   -1.2194 H   0  0
  1  2  2  0  0  0
  2 18  1  0  0  0
  2  3  1  0  0  0
  3  4  2  0  0  0
  4  5  1  0  0  0
  5  6  2  0  0  0
  6 16  1  0  0  0
  6  7  1  0  0  0
  7  8  1  0  0  0
  8 11  1  0  0  0
  8  9  1  0  0  0
  9 10  1  0  0  0
 11 15  2  0  0  0
 11 12  1  0  0  0
 12 13  1  0  0  0
 13 14  1  0  0  0
 16 17  2  0  0  0
 17  3  1  0  0  0
 18 19  1  0  0  0
 19 20  1  0  0  0
 20 21  2  0  0  0
 21 22  1  0  0  0
 22 23  2  0  0  0
 23 24  1  0  0  0
 24 25  2  0  0  0
 25 26  1  0  0  0
 25 20  1  0  0  0
 26 29  1  0  0  0
 26 28  1  0  0  0
 26 27  1  0  0  0
  4 30  1  0  0  0
  5 31  1  0  0  0
  7 32  1  0  0  0
  7 33  1  0  0  0
  8 34  1  0  0  0
  9 35  1  0  0  0
  9 36  1  0  0  0
 10 37  1  0  0  0
 10 38  1  0  0  0
 10 39  1  0  0  0
 13 40  1  0  0  0
 13 41  1  0  0  0
 14 42  1  0  0  0
 14 43  1  0  0  0
 14 44  1  0  0  0
 16 45  1  0  0  0
 17 46  1  0  0  0
 18 47  1  0  0  0
 19 48  1  0  0  0
 19 49  1  0  0  0
 21 50  1  0  0  0
 22 51  1  0  0  0
 23 52  1  0  0  0
 24 53  1  0  0  0
M  END
> <pIC50>
7.357

$$$$
D3_06
  DSViewer          3D                             0

 50 51  0  0  0  0  0  0  0  0999 V2000
    0.1642   -2.1088    1.6091 O   0  0
   -0.3075   -1.5690    0.6268 C   0  0
   -1.6654   -0.9991    0.5085 C   0  0
   -2.7809   -1.8387    0.6352 C   0  0
   -4.0636   -1.3973    0.3662 C   0  0
   -4.2553   -0.0368   -0.0554 C   0  0
   -5.6397    0.2741   -0.4582 C   0  0
   -6.4471    0.9929    0.5538 C   0  0  2  0  0  0
   -7.9291    0.9536    0.2694 C   0  0
   -8.3488    1.5885   -1.0112 C   0  0
   -5.9954    2.4261    0.7185 C   0  0
   -6.9176    3.3719    0.1189 O   0  0
   -6.7639    4.7090    0.1073 C   0  0
   -5.6527    5.3003   -0.7445 C   0  0
   -5.0186    2.8933    1.2441 O   0  0
   -3.2001    0.7880   -0.1689 C   0  0
   -1.9174    0.2834    0.1214 C   0  0
    0.5090   -1.5002   -0.5249 N   0  0
    1.7343   -1.8612   -0.9931 C   0  0
    3.0052   -1.6185   -0.3347 C   0  0
    3.4759   -2.3766    0.7616 C   0  0
    4.7794   -2.2332    1.1511 C   0  0
    5.6574   -1.3131    0.4595 C   0  0
    5.1851   -0.5769   -0.5955 C   0  0
    3.8809   -0.7357   -0.9757 C   0  0
    3.2811    0.2300   -2.3406 Cl  0  0
   -2.6706   -2.8514    0.9527 H   0  0
   -4.9501   -1.9911    0.4468 H   0  0
   -6.1297   -0.6465   -0.7803 H   0  0
   -5.5563    0.9555   -1.4039 H   0  0
   -6.3409    0.4691    1.5550 H   0  0
   -8.4283    1.5032    1.1274 H   0  0
   -8.3055   -0.1162    0.3279 H   0  0
   -8.9358    2.5174   -0.8436 H   0  0
   -9.0640    0.9023   -1.5241 H   0  0
   -7.4802    1.8399   -1.6291 H   0  0
   -6.7284    5.1778    1.1365 H   0  0
   -7.7466    5.1489   -0.3149 H   0  0
   -4.6947    4.7987   -0.6457 H   0  0
   -5.9860    5.2338   -1.8145 H   0  0
   -5.6531    6.3981   -0.5399 H   0  0
   -3.3095    1.8414   -0.4762 H   0  0
   -1.0654    1.0069    0.0487 H   0  0
   -0.1272   -0.9941   -1.3355 H   0  0
    1.8346   -1.5393   -2.0879 H   0  0
    1.7757   -3.0447   -1.2343 H   0  0
    2.8449   -3.0551    1.3192 H   0  0
    5.1964   -2.7553    1.9739 H   0  0
    6.6593   -1.2326    0.8375 H   0  0
    5.8584    0.1623   -1.1025 H   0  0
  1  2  2  0  0  0
  2 18  1  0  0  0
  2  3  1  0  0  0
  3  4  2  0  0  0
  4  5  1  0  0  0
  5  6  2  0  0  0
  6 16  1  0  0  0
  6  7  1  0  0  0
  7  8  1  0  0  0
  8 11  1  0  0  0
  8  9  1  0  0  0
  9 10  1  0  0  0
 11 15  2  0  0  0
 11 12  1  0  0  0
 12 13  1  0  0  0
 13 14  1  0  0  0
 16 17  2  0  0  0
 17  3  1  0  0  0
 18 19  1  0  0  0
 19 20  1  0  0  0
 20 21  2  0  0  0
 21 22  1  0  0  0
 22 23  2  0  0  0
 23 24  1  0  0  0
 24 25  2  0  0  0
 25 26  1  0  0  0
 25 20  1  0  0  0
  4 27  1  0  0  0
  5 28  1  0  0  0
  7 29  1  0  0  0
  7 30  1  0  0  0
  8 31  1  0  0  0
  9 32  1  0  0  0
  9 33  1  0  0  0
 10 34  1  0  0  0
 10 35  1  0  0  0
 10 36  1  0  0  0
 13 37  1  0  0  0
 13 38  1  0  0  0
 14 39  1  0  0  0
 14 40  1  0  0  0
 14 41  1  0  0  0
 16 42  1  0  0  0
 17 43  1  0  0  0
 18 44  1  0  0  0
 19 45  1  0  0  0
 19 46  1  0  0  0
 21 47  1  0  0  0
 22 48  1  0  0  0
 23 49  1  0  0  0
 24 50  1  0  0  0
M  END
> <pIC50>
5.42

$$$$
D3_08
  DSViewer          3D                             0

 54 55  0  0  0  0  0  0  0  0999 V2000
   -0.1021   -1.6318    1.7933 O   0  0
   -0.4387   -1.3181    0.6323 C   0  0
   -1.8105   -0.8183    0.4221 C   0  0
   -2.7572   -1.8095    0.1341 C   0  0
   -4.0672   -1.5086   -0.1212 C   0  0
   -4.5094   -0.1636   -0.0997 C   0  0
   -5.9014    0.0871   -0.4763 C   0  0
   -6.9761    0.0360    0.5115 C   0  0  2  0  0  0
   -8.3461    0.0090   -0.1802 C   0  0
   -8.5322   -1.1885   -1.0518 C   0  0
   -7.0374    0.9435    1.6317 C   0  0
   -6.6625    0.7645    2.9419 O   0  0
   -6.8657    1.8267    3.8820 C   0  0
   -8.3864    2.0834    3.9001 C   0  0
   -7.5265    2.1301    1.4072 O   0  0
   -3.5817    0.8038    0.1811 C   0  0
   -2.2423    0.4432    0.4376 C   0  0
    0.5004   -1.4592   -0.4287 N   0  0
    1.8368   -1.9336   -0.4111 C   0  0
    3.0011   -1.1424   -0.1165 C   0  0
    4.0702   -1.1499   -1.0476 C   0  0
    5.2720   -0.5366   -0.8495 C   0  0
    5.5411    0.1570    0.3131 C   0  0
    4.5392    0.1922    1.2334 C   0  0
    3.3048   -0.4415    1.0209 C   0  0
    2.3210   -0.3651    1.9764 O   0  0
    2.4263    0.2909    3.2076 C   0  0
    2.7063    1.6485    3.0705 F   0  0
    1.1487    0.2530    3.8081 F   0  0
    3.3180   -0.3598    4.0413 F   0  0
   -2.4511   -2.8379    0.1275 H   0  0
   -4.8298   -2.2665   -0.3622 H   0  0
   -5.9146    1.1157   -1.0189 H   0  0
   -6.1625   -0.5905   -1.3543 H   0  0
   -6.9348   -1.0508    0.9670 H   0  0
   -9.0942    0.0550    0.6282 H   0  0
   -8.4287    0.9427   -0.8190 H   0  0
   -8.1818   -2.1203   -0.5353 H   0  0
   -9.6160   -1.2905   -1.2880 H   0  0
   -7.9917   -1.0742   -2.0324 H   0  0
   -6.3874    2.7677    3.5688 H   0  0
   -6.5104    1.5746    4.8947 H   0  0
   -8.7913    1.8861    4.9114 H   0  0
   -8.8854    1.4067    3.1859 H   0  0
   -8.5909    3.1383    3.5772 H   0  0
   -3.8844    1.8358    0.2024 H   0  0
   -1.5408    1.2420    0.6417 H   0  0
    0.0497   -1.1387   -1.3777 H   0  0
    1.9666   -2.9138    0.1416 H   0  0
    1.9724   -2.3509   -1.5064 H   0  0
    3.9051   -1.6996   -1.9949 H   0  0
    6.0911   -0.5519   -1.5846 H   0  0
    6.4880    0.6694    0.5000 H   0  0
    4.6873    0.7240    2.1938 H   0  0
  1  2  2  0  0  0
  2 18  1  0  0  0
  2  3  1  0  0  0
  3  4  2  0  0  0
  4  5  1  0  0  0
  5  6  2  0  0  0
  6 16  1  0  0  0
  6  7  1  0  0  0
  7  8  1  0  0  0
  8 11  1  0  0  0
  8  9  1  0  0  0
  9 10  1  0  0  0
 11 15  2  0  0  0
 11 12  1  0  0  0
 12 13  1  0  0  0
 13 14  1  0  0  0
 16 17  2  0  0  0
 17  3  1  0  0  0
 18 19  1  0  0  0
 19 20  1  0  0  0
 20 21  2  0  0  0
 21 22  1  0  0  0
 22 23  2  0  0  0
 23 24  1  0  0  0
 24 25  2  0  0  0
 25 26  1  0  0  0
 25 20  1  0  0  0
 26 27  1  0  0  0
 27 30  1  0  0  0
 27 29  1  0  0  0
 27 28  1  0  0  0
  4 31  1  0  0  0
  5 32  1  0  0  0
  7 33  1  0  0  0
  7 34  1  0  0  0
  8 35  1  0  0  0
  9 36  1  0  0  0
  9 37  1  0  0  0
 10 38  1  0  0  0
 10 39  1  0  0  0
 10 40  1  0  0  0
 13 41  1  0  0  0
 13 42  1  0  0  0
 14 43  1  0  0  0
 14 44  1  0  0  0
 14 45  1  0  0  0
 16 46  1  0  0  0
 17 47  1  0  0  0
 18 48  1  0  0  0
 19 49  1  0  0  0
 19 50  1  0  0  0
 21 51  1  0  0  0
 22 52  1  0  0  0
 23 53  1  0  0  0
 24 54  1  0  0  0
M  END
> <pIC50>
7.523

$$$$
D3_31
  DSViewer          3D                             0

 49 50  0  0  0  0  0  0  0  0999 V2000
   -0.6204   -2.9343   -1.2728 O   0  0
   -0.6929   -1.8399   -0.6230 C   0  0
   -1.9753   -1.2646   -0.2443 C   0  0
   -2.0428    0.0499    0.1280 C   0  0
   -3.2379    0.6226    0.4989 C   0  0
   -4.4050   -0.1132    0.5060 C   0  0
   -5.7243    0.4189    0.8880 C   0  0
   -6.4433    0.9066   -0.4027 C   0  0  2  0  0  0
   -5.5300    1.7949   -1.1403 C   0  0
   -6.0317    2.3925   -2.3986 C   0  0
   -7.1833    3.3263   -2.2405 C   0  0
   -7.7341    1.4188    0.0536 C   0  0
   -8.8701    1.4115   -0.7430 O   0  5
   -7.8222    1.8867    1.2358 O   0  0
   -4.3080   -1.4490    0.1224 C   0  0
   -3.1264   -2.0309   -0.2485 C   0  0
    0.5747   -1.2262   -0.2961 N   0  0
    1.8038   -1.8381   -0.6965 C   0  0
    3.0144   -1.1060   -0.2973 C   0  0
    3.0122    0.0741    0.3977 C   0  0
    4.1790    0.7547    0.7675 C   0  0
    5.3907    0.2145    0.4172 C   0  0
    5.3950   -0.9714   -0.2813 C   0  0
    4.2602   -1.6419   -0.6460 C   0  0
    4.3654   -2.8978   -1.3881 C   0  0
    5.6953   -3.1490   -1.6594 F   0  0
    3.9063   -3.9878   -0.6728 F   0  0
    3.7385   -2.7927   -2.6145 F   0  0
   -1.1888    0.7003    0.1486 H   0  0
   -3.3069    1.6748    0.7998 H   0  0
   -5.6080    1.2936    1.5643 H   0  0
   -6.3291   -0.3615    1.3633 H   0  0
   -6.6192   -0.0479   -0.9997 H   0  0
   -4.5973    1.1982   -1.3682 H   0  0
   -5.1520    2.6261   -0.4819 H   0  0
   -5.1860    2.9313   -2.9062 H   0  0
   -6.3496    1.5474   -3.0667 H   0  0
   -7.3514    3.5400   -1.1692 H   0  0
   -6.8757    4.3104   -2.7335 H   0  0
   -8.0824    2.9440   -2.7514 H   0  0
   -5.2158   -2.0694    0.1146 H   0  0
   -3.0582   -3.0643   -0.5441 H   0  0
    0.4783   -0.3436    0.2366 H   0  0
    1.8239   -1.8531   -1.8303 H   0  0
    1.8474   -2.9170   -0.4269 H   0  0
    2.0896    0.5366    0.6942 H   0  0
    4.1723    1.6818    1.3137 H   0  0
    6.3263    0.7138    0.6865 H   0  0
    6.3886   -1.3719   -0.5435 H   0  0
  1  2  2  0  0  0
  2 17  1  0  0  0
  2  3  1  0  0  0
  3  4  2  0  0  0
  4  5  1  0  0  0
  5  6  2  0  0  0
  6 15  1  0  0  0
  6  7  1  0  0  0
  7  8  1  0  0  0
  8 12  1  0  0  0
  8  9  1  0  0  0
  9 10  1  0  0  0
 10 11  1  0  0  0
 12 14  2  0  0  0
 12 13  1  0  0  0
 15 16  2  0  0  0
 16  3  1  0  0  0
 17 18  1  0  0  0
 18 19  1  0  0  0
 19 20  2  0  0  0
 20 21  1  0  0  0
 21 22  2  0  0  0
 22 23  1  0  0  0
 23 24  2  0  0  0
 24 25  1  0  0  0
 24 19  1  0  0  0
 25 28  1  0  0  0
 25 27  1  0  0  0
 25 26  1  0  0  0
  4 29  1  0  0  0
  5 30  1  0  0  0
  7 31  1  0  0  0
  7 32  1  0  0  0
  8 33  1  0  0  0
  9 34  1  0  0  0
  9 35  1  0  0  0
 10 36  1  0  0  0
 10 37  1  0  0  0
 11 38  1  0  0  0
 11 39  1  0  0  0
 11 40  1  0  0  0
 15 41  1  0  0  0
 16 42  1  0  0  0
 17 43  1  0  0  0
 18 44  1  0  0  0
 18 45  1  0  0  0
 20 46  1  0  0  0
 21 47  1  0  0  0
 22 48  1  0  0  0
 23 49  1  0  0  0
M  CHG  1  13  -1
M  END
> <pIC50>
5.301

$$$$
D3_19
  DSViewer          3D                             0

 56 57  0  0  0  0  0  0  0  0999 V2000
    2.0275   -2.8540   -1.8091 O   0  0
    1.7308   -1.9667   -0.9400 C   0  0
    0.3678   -1.8133   -0.5085 C   0  0
    0.0225   -0.8814    0.4133 C   0  0
   -1.3089   -0.7412    0.8254 C   0  0
   -2.3079   -1.5314    0.3185 C   0  0
   -3.7006   -1.3896    0.7228 C   0  0
   -4.5893   -0.5451   -0.1262 C   0  0  2  0  0  0
   -4.8872   -1.2505   -1.4502 C   0  0
   -5.7843   -0.4575   -2.3563 C   0  0
   -7.1327   -0.1398   -1.8100 C   0  0
   -4.2136    0.8558   -0.2827 C   0  0
   -5.1661    1.6820   -0.9208 O   0  0
   -4.9186    3.0519   -1.1301 C   0  0
   -4.6983    3.7465    0.2118 C   0  0
   -3.1703    1.4240    0.0673 O   0  0
   -1.9291   -2.4809   -0.6253 C   0  0
   -0.6040   -2.6269   -1.0409 C   0  0
    2.8350   -1.1928   -0.4741 N   0  0
    4.1698   -1.4153   -0.9624 C   0  0
    5.2220   -0.5729   -0.4227 C   0  0
    4.9725    0.3956    0.5161 C   0  0
    5.9974    1.2090    1.0284 C   0  0
    7.2853    1.0473    0.5929 C   0  0
    7.5142    0.0731   -0.3463 C   0  0
    6.5245   -0.7283   -0.8554 C   0  0
    6.8697   -1.7451   -1.8516 C   0  0
    8.2476   -1.7581   -2.1159 F   0  0
    6.2785   -1.5052   -3.0832 F   0  0
    6.5724   -2.9855   -1.3661 F   0  0
    0.7337   -0.2172    0.8658 H   0  0
   -1.5604   -0.0077    1.5766 H   0  0
   -4.2197   -2.3926    0.8025 H   0  0
   -3.7998   -0.9890    1.7790 H   0  0
   -5.5916   -0.5500    0.4109 H   0  0
   -5.3941   -2.2057   -1.2325 H   0  0
   -3.9275   -1.3904   -1.9977 H   0  0
   -5.9620   -1.1493   -3.2513 H   0  0
   -5.2715    0.4229   -2.8137 H   0  0
   -7.4392    0.8611   -2.2106 H   0  0
   -7.9214   -0.8361   -2.2010 H   0  0
   -7.1820   -0.1590   -0.7093 H   0  0
   -5.8507    3.4803   -1.5634 H   0  0
   -4.1076    3.2543   -1.8373 H   0  0
   -4.7778    3.0066    1.0195 H   0  0
   -3.6618    4.1716    0.2642 H   0  0
   -5.3844    4.6127    0.3412 H   0  0
   -2.6466   -3.1340   -1.0563 H   0  0
   -0.3631   -3.3946   -1.7905 H   0  0
    2.6109   -0.4724    0.2277 H   0  0
    4.4248   -2.5050   -0.9642 H   0  0
    4.1115   -1.1742   -2.0718 H   0  0
    4.0004    0.5979    0.9183 H   0  0
    5.7702    1.9623    1.7660 H   0  0
    8.1017    1.6478    0.9577 H   0  0
    8.5594   -0.0348   -0.6785 H   0  0
  1  2  2  0  0  0
  2 19  1  0  0  0
  2  3  1  0  0  0
  3  4  2  0  0  0
  4  5  1  0  0  0
  5  6  2  0  0  0
  6 17  1  0  0  0
  6  7  1  0  0  0
  7  8  1  0  0  0
  8 12  1  0  0  0
  8  9  1  0  0  0
  9 10  1  0  0  0
 10 11  1  0  0  0
 12 16  2  0  0  0
 12 13  1  0  0  0
 13 14  1  0  0  0
 14 15  1  0  0  0
 17 18  2  0  0  0
 18  3  1  0  0  0
 19 20  1  0  0  0
 20 21  1  0  0  0
 21 22  2  0  0  0
 22 23  1  0  0  0
 23 24  2  0  0  0
 24 25  1  0  0  0
 25 26  2  0  0  0
 26 27  1  0  0  0
 26 21  1  0  0  0
 27 30  1  0  0  0
 27 29  1  0  0  0
 27 28  1  0  0  0
  4 31  1  0  0  0
  5 32  1  0  0  0
  7 33  1  0  0  0
  7 34  1  0  0  0
  8 35  1  0  0  0
  9 36  1  0  0  0
  9 37  1  0  0  0
 10 38  1  0  0  0
 10 39  1  0  0  0
 11 40  1  0  0  0
 11 41  1  0  0  0
 11 42  1  0  0  0
 14 43  1  0  0  0
 14 44  1  0  0  0
 15 45  1  0  0  0
 15 46  1  0  0  0
 15 47  1  0  0  0
 17 48  1  0  0  0
 18 49  1  0  0  0
 19 50  1  0  0  0
 20 51  1  0  0  0
 20 52  1  0  0  0
 22 53  1  0  0  0
 23 54  1  0  0  0
 24 55  1  0  0  0
 25 56  1  0  0  0
M  END
> <pIC50>
6.77

$$$$
D1_25
  DSViewer          3D                             0

 43 44  0  0  0  0  0  0  0  0999 V2000
    0.2603   -1.2917    1.6279 O   0  0
   -0.1490   -1.5524    0.4733 C   0  0
   -1.5605   -1.2393    0.1320 C   0  0
   -2.6087   -1.2991    0.9788 C   0  0
   -3.8926   -0.9507    0.5893 C   0  0
   -4.1085   -0.5248   -0.7180 C   0  0
   -5.4827   -0.2239   -1.1712 C   0  0
   -6.0361    1.0247   -0.5403 C   0  0
   -6.1178    0.8505    0.8589 F   0  0
   -7.3316    1.2102   -0.9751 F   0  0
   -5.2808    2.1278   -0.8078 F   0  0
   -3.0674   -0.4453   -1.6265 C   0  0
   -1.8169   -0.8050   -1.1782 C   0  0
    0.6364   -2.0958   -0.5324 N   0  0
    1.9984   -2.4332   -0.5642 C   0  0
    2.9109   -1.3366   -0.2163 C   0  0
    3.6379   -0.6108   -1.1599 C   0  0
    3.1325   -0.7964   -2.8520 Cl  0  0
    4.6215    0.2614   -0.8122 C   0  0
    4.9464    0.4707    0.4916 C   0  0
    5.9342    1.3745    0.9365 N   0  0
    7.5757    0.8520    0.8572 S   0  0
    8.0673    0.4919   -0.7779 C   0  0
    7.6142   -0.4764    1.6312 O   0  0
    8.5219    1.7861    1.5280 O   0  0
    4.2521   -0.2199    1.4787 C   0  0
    3.2377   -1.1239    1.1192 C   0  0
   -2.4478   -1.6251    1.9973 H   0  0
   -4.7577   -0.9820    1.2370 H   0  0
   -6.1476   -1.0945   -1.1060 H   0  0
   -5.4312   -0.0290   -2.3183 H   0  0
   -3.2297   -0.1527   -2.6611 H   0  0
   -0.9693   -0.7490   -1.8682 H   0  0
    0.1154   -2.3359   -1.4583 H   0  0
    2.1449   -3.1874    0.3298 H   0  0
    2.3547   -2.9877   -1.4462 H   0  0
    5.0927    0.7836   -1.6368 H   0  0
    5.6392    2.3186    1.2993 H   0  0
    8.6536    1.3826   -1.1401 H   0  0
    8.7555   -0.3984   -0.7793 H   0  0
    7.2417    0.3744   -1.4733 H   0  0
    4.5141   -0.0425    2.5279 H   0  0
    2.7333   -1.6602    1.9167 H   0  0
  1  2  2  0  0  0
  2 14  1  0  0  0
  2  3  1  0  0  0
  3  4  2  0  0  0
  4  5  1  0  0  0
  5  6  2  0  0  0
  6 12  1  0  0  0
  6  7  1  0  0  0
  7  8  1  0  0  0
  8 11  1  0  0  0
  8 10  1  0  0  0
  8  9  1  0  0  0
 12 13  2  0  0  0
 13  3  1  0  0  0
 14 15  1  0  0  0
 15 16  1  0  0  0
 16 17  2  0  0  0
 17 19  1  0  0  0
 17 18  1  0  0  0
 19 20  2  0  0  0
 20 26  1  0  0  0
 20 21  1  0  0  0
 21 22  1  0  0  0
 22 25  2  0  0  0
 22 24  2  0  0  0
 22 23  1  0  0  0
 26 27  2  0  0  0
 27 16  1  0  0  0
  4 28  1  0  0  0
  5 29  1  0  0  0
  7 30  1  0  0  0
  7 31  1  0  0  0
 12 32  1  0  0  0
 13 33  1  0  0  0
 14 34  1  0  0  0
 15 35  1  0  0  0
 15 36  1  0  0  0
 19 37  1  0  0  0
 21 38  1  0  0  0
 23 39  1  0  0  0
 23 40  1  0  0  0
 23 41  1  0  0  0
 26 42  1  0  0  0
 27 43  1  0  0  0
M  END
> <pIC50>
7.886

$$$$
D3_29
  DSViewer          3D                             0

 40 41  0  0  0  0  0  0  0  0999 V2000
   -0.0766   -2.1796    1.3889 O   0  0
   -0.4339   -1.5448    0.3909 C   0  0
   -1.7543   -1.0224    0.2978 C   0  0
   -2.0615    0.1874   -0.2674 C   0  0
   -3.3667    0.6076   -0.3410 C   0  0
   -4.3943   -0.1701    0.1587 C   0  0
   -5.8283    0.2169    0.0205 C   0  0
   -6.2073   -0.2737   -1.3848 C   0  0
   -5.3140    0.4413   -2.3157 C   0  0
   -5.7107    1.7679   -2.6017 O   0  5
   -4.3188   -0.0925   -2.8051 O   0  0
   -4.1100   -1.3838    0.7283 C   0  0
   -2.8318   -1.7982    0.7912 C   0  0
    0.5597   -1.3832   -0.6921 N   0  0
    1.7886   -1.9494   -0.4141 C   0  0
    3.0542   -1.7144   -1.0995 C   0  0
    3.4564   -2.2953   -2.2340 C   0  0
    4.8114   -2.2453   -2.6559 C   0  0
    5.7220   -1.5807   -1.8482 C   0  0
    5.2960   -0.9842   -0.6978 C   0  0
    3.9837   -1.0177   -0.2891 C   0  0
    3.4709   -0.2514    0.8422 C   0  0
    2.5458    0.7073    0.2710 F   0  0
    4.4173    0.5571    1.3994 F   0  0
    2.8261   -0.9415    1.8015 F   0  0
   -1.2475    0.8109   -0.6489 H   0  0
   -3.6480    1.5422   -0.7831 H   0  0
   -6.0449    1.2466    0.2093 H   0  0
   -6.4321   -0.4283    0.6946 H   0  0
   -5.9898   -1.3687   -1.3630 H   0  0
   -7.2451   -0.0556   -1.5663 H   0  0
   -4.9283   -1.9827    1.1450 H   0  0
   -2.5490   -2.7445    1.2189 H   0  0
    0.2394   -0.9071   -1.5130 H   0  0
    1.5103   -3.1052   -0.9160 H   0  0
    1.8955   -2.4193    0.6227 H   0  0
    2.8291   -2.8556   -2.9073 H   0  0
    5.1550   -2.7282   -3.5392 H   0  0
    6.7717   -1.5256   -2.0780 H   0  0
    6.0482   -0.4517   -0.0721 H   0  0
  1  2  2  0  0  0
  2 14  1  0  0  0
  2  3  1  0  0  0
  3  4  2  0  0  0
  4  5  1  0  0  0
  5  6  2  0  0  0
  6 12  1  0  0  0
  6  7  1  0  0  0
  7  8  1  0  0  0
  8  9  1  0  0  0
  9 11  2  0  0  0
  9 10  1  0  0  0
 12 13  2  0  0  0
 13  3  1  0  0  0
 14 15  1  0  0  0
 15 16  1  0  0  0
 16 17  2  0  0  0
 17 18  1  0  0  0
 18 19  2  0  0  0
 19 20  1  0  0  0
 20 21  2  0  0  0
 21 22  1  0  0  0
 21 16  1  0  0  0
 22 25  1  0  0  0
 22 24  1  0  0  0
 22 23  1  0  0  0
  4 26  1  0  0  0
  5 27  1  0  0  0
  7 28  1  0  0  0
  7 29  1  0  0  0
  8 30  1  0  0  0
  8 31  1  0  0  0
 12 32  1  0  0  0
 13 33  1  0  0  0
 14 34  1  0  0  0
 15 35  1  0  0  0
 15 36  1  0  0  0
 17 37  1  0  0  0
 18 38  1  0  0  0
 19 39  1  0  0  0
 20 40  1  0  0  0
M  CHG  1  10  -1
M  END
> <pIC50>
5.046

$$$$
D3_17
  DSViewer          3D                             0

 47 48  0  0  0  0  0  0  0  0999 V2000
    0.3118   -1.6138    1.5558 O   0  0
   -0.2023   -1.4469    0.4356 C   0  0
   -1.5697   -0.9687    0.3425 C   0  0
   -1.8021    0.3824    0.3750 C   0  0
   -3.0971    0.8200    0.2663 C   0  0
   -4.1672   -0.0723    0.1247 C   0  0
   -5.5136    0.5332   -0.0074 C   0  0
   -6.1125    0.8207    1.3410 C   0  0
   -6.2814   -0.4450    2.0802 C   0  0
   -5.9127   -0.6763    3.3806 O   0  0
   -6.0912   -1.9098    4.0463 C   0  0
   -7.5354   -2.3396    4.1450 C   0  0
   -6.8118   -1.4198    1.4707 O   0  0
   -3.9402   -1.4235    0.0919 C   0  0
   -2.6288   -1.8599    0.2039 C   0  0
    0.5124   -1.7114   -0.7527 N   0  0
    1.8667   -2.1850   -0.8090 C   0  0
    2.8695   -1.2541   -0.2780 C   0  0
    2.5141   -0.0013    0.2232 C   0  0
    3.4983    0.8567    0.7143 C   0  0
    4.8223    0.4774    0.7071 C   0  0
    5.1465   -0.7540    0.2106 C   0  0
    4.1882   -1.6227   -0.2815 C   0  0
    4.6328   -2.9284   -0.8117 C   0  0
    4.3515   -2.9418   -2.1834 F   0  0
    4.0518   -3.9570   -0.1338 F   0  0
    6.0141   -3.0665   -0.7224 F   0  0
   -1.0195    1.1088    0.4806 H   0  0
   -3.3155    1.8774    0.2884 H   0  0
   -5.4557    1.4655   -0.6046 H   0  0
   -6.1636   -0.1579   -0.6069 H   0  0
   -7.0729    1.3763    1.2333 H   0  0
   -5.4479    1.5380    1.8842 H   0  0
   -5.5085   -2.7269    3.5435 H   0  0
   -5.6698   -1.8095    5.0630 H   0  0
   -7.7149   -3.2310    3.4835 H   0  0
   -8.2600   -1.5486    3.9501 H   0  0
   -7.7775   -2.7234    5.1796 H   0  0
   -4.7363   -2.1485   -0.0216 H   0  0
   -2.4105   -2.9327    0.1784 H   0  0
   -0.0156   -1.5373   -1.6559 H   0  0
    1.9597   -3.1896   -0.3137 H   0  0
    2.1257   -2.3907   -1.8852 H   0  0
    1.5115    0.3763    0.2495 H   0  0
    3.2670    1.8369    1.1134 H   0  0
    5.6055    1.1231    1.0804 H   0  0
    6.1762   -1.0649    0.1957 H   0  0
  1  2  2  0  0  0
  2 16  1  0  0  0
  2  3  1  0  0  0
  3  4  2  0  0  0
  4  5  1  0  0  0
  5  6  2  0  0  0
  6 14  1  0  0  0
  6  7  1  0  0  0
  7  8  1  0  0  0
  8  9  1  0  0  0
  9 13  2  0  0  0
  9 10  1  0  0  0
 10 11  1  0  0  0
 11 12  1  0  0  0
 14 15  2  0  0  0
 15  3  1  0  0  0
 16 17  1  0  0  0
 17 18  1  0  0  0
 18 19  2  0  0  0
 19 20  1  0  0  0
 20 21  2  0  0  0
 21 22  1  0  0  0
 22 23  2  0  0  0
 23 24  1  0  0  0
 23 18  1  0  0  0
 24 27  1  0  0  0
 24 26  1  0  0  0
 24 25  1  0  0  0
  4 28  1  0  0  0
  5 29  1  0  0  0
  7 30  1  0  0  0
  7 31  1  0  0  0
  8 32  1  0  0  0
  8 33  1  0  0  0
 11 34  1  0  0  0
 11 35  1  0  0  0
 12 36  1  0  0  0
 12 37  1  0  0  0
 12 38  1  0  0  0
 14 39  1  0  0  0
 15 40  1  0  0  0
 16 41  1  0  0  0
 17 42  1  0  0  0
 17 43  1  0  0  0
 19 44  1  0  0  0
 20 45  1  0  0  0
 21 46  1  0  0  0
 22 47  1  0  0  0
M  END
> <pIC50>
6.959

$$$$
D4_11
  DSViewer          3D                             0

 57 60  0  0  0  0  0  0  0  0999 V2000
   -0.2312   -2.2766    1.6307 O   0  0
   -0.4524   -1.7065    0.5433 C   0  0
   -1.7983   -1.1666    0.2724 C   0  0
   -1.9036    0.0128   -0.4321 C   0  0
   -3.0883    0.6599   -0.7003 C   0  0
   -4.2490    0.0909   -0.2257 C   0  0
   -5.5248    0.5361   -0.2745 N   0  0
   -5.9178    1.7804   -0.9314 C   0  0
   -5.3904    2.9643   -0.0927 C   0  0
   -7.3946    1.9427   -0.9905 C   0  0
   -6.3175   -0.3208    0.3866 C   0  0
   -5.4751   -1.3514    0.8455 C   0  0
   -4.1817   -1.0833    0.4689 C   0  0
   -2.9595   -1.7315    0.7226 C   0  0
    0.5332   -1.5502   -0.4166 N   0  0
    1.8699   -1.7508   -0.7281 C   0  0
    2.9427   -1.0253   -0.0933 C   0  0
    3.8568   -0.4154   -1.0051 C   0  0
    3.4580   -0.4153   -2.4314 C   0  0
    3.5529   -1.5568   -3.1170 F   0  0
    4.3054    0.5019   -3.1143 F   0  0
    2.2068    0.2474   -2.5398 F   0  0
    4.9624    0.2553   -0.6161 C   0  0
    5.2875    0.3992    0.7113 C   0  0
    6.3826    1.2618    0.9528 N   0  0
    7.8573    1.1199    0.0752 S   0  0
    9.2667    0.9024    1.0738 C   0  0
    9.6511   -0.4173    1.6674 C   0  0
   10.4469    0.1641    0.5379 C   0  0
    7.7798   -0.0288   -0.9071 O   0  0
    8.0654    2.3874   -0.7758 O   0  0
    4.4613   -0.1627    1.6169 C   0  0
    3.2983   -0.8630    1.2073 C   0  0
   -0.9999    0.5135   -0.7923 H   0  0
   -3.0892    1.5921   -1.2875 H   0  0
   -5.4316    1.8066   -1.9146 H   0  0
   -6.1892    3.4466    0.4714 H   0  0
   -4.8797    3.6798   -0.7205 H   0  0
   -4.6799    2.5390    0.6681 H   0  0
   -7.8708    1.4699   -1.8500 H   0  0
   -7.5743    3.0619   -1.1366 H   0  0
   -7.8354    1.6673   -0.0107 H   0  0
   -7.3826   -0.2731    0.5757 H   0  0
   -5.7897   -2.2136    1.4190 H   0  0
   -2.9657   -2.6652    1.2502 H   0  0
    0.0531   -1.0416   -1.3492 H   0  0
    2.0603   -2.1321   -1.7703 H   0  0
    2.0598   -2.8773   -0.2164 H   0  0
    5.6206    0.7247   -1.3532 H   0  0
    6.3562    2.0274    1.6693 H   0  0
    9.4919    1.7929    1.7763 H   0  0
   10.1682   -0.3713    2.6713 H   0  0
    9.0578   -1.3316    1.5126 H   0  0
   10.3730   -0.3046   -0.4666 H   0  0
   11.4412    0.5534    0.7619 H   0  0
    4.7007   -0.0910    2.6645 H   0  0
    2.6685   -1.3352    1.9748 H   0  0
  1  2  2  0  0  0
  2 15  1  0  0  0
  2  3  1  0  0  0
  3  4  2  0  0  0
  4  5  1  0  0  0
  5  6  2  0  0  0
  6 13  1  0  0  0
  6  7  1  0  0  0
  7 11  1  0  0  0
  7  8  1  0  0  0
  8 10  1  0  0  0
  8  9  1  0  0  0
 11 12  2  0  0  0
 13 14  2  0  0  0
 13 12  1  0  0  0
 14  3  1  0  0  0
 15 16  1  0  0  0
 16 17  1  0  0  0
 17 18  2  0  0  0
 18 23  1  0  0  0
 18 19  1  0  0  0
 19 22  1  0  0  0
 19 21  1  0  0  0
 19 20  1  0  0  0
 23 24  2  0  0  0
 24 32  1  0  0  0
 24 25  1  0  0  0
 25 26  1  0  0  0
 26 31  2  0  0  0
 26 30  2  0  0  0
 26 27  1  0  0  0
 27 28  1  0  0  0
 28 29  1  0  0  0
 29 27  1  0  0  0
 32 33  2  0  0  0
 33 17  1  0  0  0
  4 34  1  0  0  0
  5 35  1  0  0  0
  8 36  1  0  0  0
  9 37  1  0  0  0
  9 38  1  0  0  0
  9 39  1  0  0  0
 10 40  1  0  0  0
 10 41  1  0  0  0
 10 42  1  0  0  0
 11 43  1  0  0  0
 12 44  1  0  0  0
 14 45  1  0  0  0
 15 46  1  0  0  0
 16 47  1  0  0  0
 16 48  1  0  0  0
 23 49  1  0  0  0
 25 50  1  0  0  0
 27 51  1  0  0  0
 28 52  1  0  0  0
 28 53  1  0  0  0
 29 54  1  0  0  0
 29 55  1  0  0  0
 32 56  1  0  0  0
 33 57  1  0  0  0
M  END
> <pIC50>
8.301

$$$$
D4_05
  DSViewer          3D                             0

 60 63  0  0  0  0  0  0  0  0999 V2000
    0.2763   -1.7091    1.6119 O   0  0
   -0.2788   -1.2807    0.6371 C   0  0
   -1.7397   -0.9263    0.5601 C   0  0
   -2.7370   -1.7240    0.9806 C   0  0
   -4.0631   -1.4440    0.6824 C   0  0
   -4.3853   -0.3359   -0.0511 C   0  0
   -5.5286    0.1617   -0.5334 N   0  0
   -6.8129   -0.4811   -0.3894 C   0  0  1  0  0  0
   -6.7963   -1.9477   -0.7046 C   0  0
   -7.5377   -0.0689    0.7952 C   0  0
   -8.9056   -0.3855    0.8861 C   0  0
   -9.6685    0.0248    1.9342 C   0  0
  -11.0081   -0.3002    2.0065 F   0  0
   -9.1690    0.7635    2.9771 C   0  0
   -7.7958    1.0802    2.9057 C   0  0
   -7.0160    0.6684    1.8354 C   0  0
   -5.2926    1.2815   -1.2449 C   0  0
   -3.9469    1.5177   -1.2267 C   0  0
   -3.3785    0.4860   -0.4735 C   0  0
   -2.0865    0.2006   -0.1765 C   0  0
    0.3879   -1.0616   -0.5662 N   0  0
    1.6789   -1.1848   -1.0754 C   0  0
    2.7644   -0.6002   -0.2995 C   0  0
    3.3696    0.5150   -0.8193 C   0  0
    2.7518    1.2546   -1.9700 C   0  0
    1.4399    1.5330   -1.8245 F   0  0
    3.0443    0.5922   -3.1845 F   0  0
    3.4663    2.4648   -2.1003 F   0  0
    4.5324    1.0023   -0.2807 C   0  0
    5.1387    0.3984    0.7963 C   0  0
    6.4304    0.8737    1.2222 N   0  0
    7.5426    1.3878   -0.0070 S   0  0
    7.8689   -0.0047   -1.0850 C   0  0
    8.8319    1.7402    0.6481 O   0  0
    7.0539    2.5411   -0.7922 O   0  0
    4.5406   -0.7210    1.3333 C   0  0
    3.3492   -1.2115    0.7748 C   0  0
   -2.5145   -2.6132    1.5588 H   0  0
   -4.8760   -2.0920    1.0318 H   0  0
   -7.4515   -0.0312   -1.2599 H   0  0
   -5.8034   -2.2237   -1.1401 H   0  0
   -7.5239   -2.2138   -1.5086 H   0  0
   -7.0501   -2.5193    0.1959 H   0  0
   -9.3217   -0.9716    0.0974 H   0  0
   -9.7661    1.0896    3.8095 H   0  0
   -7.3638    1.6559    3.7069 H   0  0
   -5.9513    0.9262    1.7951 H   0  0
   -6.0178    1.9093   -1.7463 H   0  0
   -3.3351    2.3120   -1.6584 H   0  0
   -1.2885    0.8510   -0.5043 H   0  0
   -0.2963   -0.6734   -1.3604 H   0  0
    1.7599   -0.9628   -2.1594 H   0  0
    1.8530   -2.3533   -1.1049 H   0  0
    5.0006    1.8891   -0.6640 H   0  0
    6.6650    0.9206    2.2014 H   0  0
    8.3302   -0.8183   -0.5320 H   0  0
    8.4824    0.3435   -1.9002 H   0  0
    6.8916   -0.3395   -1.5185 H   0  0
    4.9743   -1.2390    2.1750 H   0  0
    2.9347   -2.1194    1.2506 H   0  0
  1  2  2  0  0  0
  2 21  1  0  0  0
  2  3  1  0  0  0
  3  4  2  0  0  0
  4  5  1  0  0  0
  5  6  2  0  0  0
  6 19  1  0  0  0
  6  7  1  0  0  0
  7 17  1  0  0  0
  7  8  1  0  0  0
  8 10  1  0  0  0
  8  9  1  0  0  0
 10 11  2  0  0  0
 11 12  1  0  0  0
 12 14  2  0  0  0
 12 13  1  0  0  0
 14 15  1  0  0  0
 15 16  2  0  0  0
 16 10  1  0  0  0
 17 18  2  0  0  0
 19 20  2  0  0  0
 19 18  1  0  0  0
 20  3  1  0  0  0
 21 22  1  0  0  0
 22 23  1  0  0  0
 23 24  2  0  0  0
 24 29  1  0  0  0
 24 25  1  0  0  0
 25 28  1  0  0  0
 25 27  1  0  0  0
 25 26  1  0  0  0
 29 30  2  0  0  0
 30 36  1  0  0  0
 30 31  1  0  0  0
 31 32  1  0  0  0
 32 35  2  0  0  0
 32 34  2  0  0  0
 32 33  1  0  0  0
 36 37  2  0  0  0
 37 23  1  0  0  0
  4 38  1  0  0  0
  5 39  1  0  0  0
  8 40  1  0  0  0
  9 41  1  0  0  0
  9 42  1  0  0  0
  9 43  1  0  0  0
 11 44  1  0  0  0
 14 45  1  0  0  0
 15 46  1  0  0  0
 16 47  1  0  0  0
 17 48  1  0  0  0
 18 49  1  0  0  0
 20 50  1  0  0  0
 21 51  1  0  0  0
 22 52  1  0  0  0
 22 53  1  0  0  0
 29 54  1  0  0  0
 31 55  1  0  0  0
 33 56  1  0  0  0
 33 57  1  0  0  0
 33 58  1  0  0  0
 36 59  1  0  0  0
 37 60  1  0  0  0
M  END
> <pIC50>
8.523

$$$$
D4_10
  DSViewer          3D                             0

 56 59  0  0  0  0  0  0  0  0999 V2000
    1.8906   -3.1479   -0.9696 O   0  0
    1.8058   -1.9770   -0.5371 C   0  0
    2.9817   -1.1704   -0.1890 C   0  0
    4.2105   -1.5029   -0.7520 C   0  0
    5.3176   -0.7606   -0.4271 C   0  0
    5.2932    0.3118    0.4356 C   0  0
    6.2427    1.1742    0.8943 N   0  0
    7.6042    1.1308    0.5121 C   0  0
    8.5913    2.0682    0.9761 C   0  0
    8.3696    3.4224    1.0105 C   0  0
    9.3513    4.2617    1.4856 C   0  0
    9.0908    5.6046    1.5037 F   0  0
   10.5596    3.8017    1.9325 C   0  0
   10.7617    2.4328    1.8881 C   0  0
    9.8186    1.5788    1.4277 C   0  0
    8.0355    0.2305   -0.2855 O   0  0
    5.6643    2.0402    1.7269 C   0  0
    4.3045    1.7126    1.7944 C   0  0
    4.0671    0.6269    0.9843 C   0  0
    2.9361   -0.1060    0.6727 C   0  0
    0.5113   -1.3749   -0.3671 N   0  0
   -0.6851   -2.0928   -0.6817 C   0  0
   -1.9045   -1.3243   -0.4475 C   0  0
   -3.1119   -1.9693   -0.7458 C   0  0
   -3.0680   -3.3413   -1.2597 C   0  0
   -4.4018   -3.7465   -1.4288 F   0  0
   -2.5367   -3.4106   -2.5561 F   0  0
   -2.4962   -4.2643   -0.4434 F   0  0
   -4.2751   -1.2716   -0.5367 C   0  0
   -4.2808    0.0161   -0.0522 C   0  0
   -5.4916    0.7393    0.1624 N   0  0
   -6.8615    0.0475    0.9262 S   0  0
   -6.3758   -0.4115    2.5937 C   0  0
   -7.2956   -1.1814    0.1771 O   0  0
   -7.9785    1.0350    0.9624 O   0  0
   -3.1007    0.6532    0.2419 C   0  0
   -1.8989   -0.0389    0.0367 C   0  0
    4.2637   -2.3523   -1.4439 H   0  0
    6.2519   -1.0626   -0.8943 H   0  0
    7.4393    3.8466    0.6562 H   0  0
   11.3383    4.4656    2.3092 H   0  0
   11.7183    2.0624    2.2416 H   0  0
   10.0434    0.5198    1.4211 H   0  0
    6.1221    2.8570    2.2815 H   0  0
    3.5455    2.2122    2.3774 H   0  0
    1.9832    0.1533    1.1189 H   0  0
    0.4779   -0.4119   -0.0181 H   0  0
   -0.6587   -2.3637   -1.7756 H   0  0
   -0.6408   -3.0298   -0.0656 H   0  0
   -5.2119   -1.7873   -0.7737 H   0  0
   -5.5435    1.7287   -0.1589 H   0  0
   -6.2382    0.5618    3.1472 H   0  0
   -7.1467   -1.0368    3.0755 H   0  0
   -5.3874   -0.8850    2.5088 H   0  0
   -3.0745    1.6721    0.6269 H   0  0
   -1.0199    0.5356    0.2941 H   0  0
  1  2  2  0  0  0
  2 21  1  0  0  0
  2  3  1  0  0  0
  3  4  2  0  0  0
  4  5  1  0  0  0
  5  6  2  0  0  0
  6 19  1  0  0  0
  6  7  1  0  0  0
  7 17  1  0  0  0
  7  8  1  0  0  0
  8 16  2  0  0  0
  8  9  1  0  0  0
  9 10  2  0  0  0
 10 11  1  0  0  0
 11 13  2  0  0  0
 11 12  1  0  0  0
 13 14  1  0  0  0
 14 15  2  0  0  0
 15  9  1  0  0  0
 17 18  2  0  0  0
 19 20  2  0  0  0
 19 18  1  0  0  0
 20  3  1  0  0  0
 21 22  1  0  0  0
 22 23  1  0  0  0
 23 24  2  0  0  0
 24 29  1  0  0  0
 24 25  1  0  0  0
 25 28  1  0  0  0
 25 27  1  0  0  0
 25 26  1  0  0  0
 29 30  2  0  0  0
 30 36  1  0  0  0
 30 31  1  0  0  0
 31 32  1  0  0  0
 32 35  2  0  0  0
 32 34  2  0  0  0
 32 33  1  0  0  0
 36 37  2  0  0  0
 37 23  1  0  0  0
  4 38  1  0  0  0
  5 39  1  0  0  0
 10 40  1  0  0  0
 13 41  1  0  0  0
 14 42  1  0  0  0
 15 43  1  0  0  0
 17 44  1  0  0  0
 18 45  1  0  0  0
 20 46  1  0  0  0
 21 47  1  0  0  0
 22 48  1  0  0  0
 22 49  1  0  0  0
 29 50  1  0  0  0
 31 51  1  0  0  0
 33 52  1  0  0  0
 33 53  1  0  0  0
 33 54  1  0  0  0
 36 55  1  0  0  0
 37 56  1  0  0  0
M  END
> <pIC50>
8.398

$$$$
D4_22
  DSViewer          3D                             0

 51 54  0  0  0  0  0  0  0  0999 V2000
    0.1460   -1.5893    1.7527 O   0  0
   -0.3898   -1.2751    0.7124 C   0  0
   -1.8250   -0.9484    0.5326 C   0  0
   -2.1028    0.2775   -0.0376 C   0  0
   -3.3903    0.6244   -0.4083 C   0  0
   -4.4262   -0.2772   -0.2117 C   0  0
   -5.7445   -0.2071   -0.5124 N   0  0
   -6.4166    0.9039   -1.1361 C   0  0
   -6.2977   -1.3491   -0.1492 C   0  0
   -5.3259   -2.1935    0.4089 C   0  0
   -4.1516   -1.4995    0.3571 C   0  0
   -2.8295   -1.8344    0.7357 C   0  0
    0.3523   -1.1972   -0.4746 N   0  0
    1.6541   -1.3855   -0.8548 C   0  0
    2.7756   -0.7313   -0.2239 C   0  0
    3.3386    0.3514   -0.9506 C   0  0
    2.5370    0.9270   -2.0803 C   0  0
    2.5133    0.2479   -3.2259 F   0  0
    3.0733    2.1949   -2.3869 F   0  0
    1.2583    1.2811   -1.5834 F   0  0
    4.5118    0.8539   -0.5242 C   0  0
    5.2158    0.3612    0.6077 C   0  0
    6.4091    1.0120    0.9324 N   0  0
    8.0300    0.6596    0.7554 S   0  0
    8.4450    0.4775   -0.9822 C   0  0
   10.0065    0.5264   -1.1740 C   0  0
    9.1977   -0.6449   -1.5217 C   0  0
    8.6008   -0.4338    1.5595 O   0  0
    8.8369    1.9121    1.1875 O   0  0
    4.6681   -0.6792    1.2962 C   0  0
    3.4370   -1.2233    0.8801 C   0  0
   -1.2986    0.9850   -0.1961 H   0  0
   -3.6337    1.5866   -0.8661 H   0  0
   -5.9271    1.2172   -2.0930 H   0  0
   -7.4555    0.5942   -1.5095 H   0  0
   -6.5909    1.7592   -0.4711 H   0  0
   -7.3443   -1.6841   -0.2347 H   0  0
   -5.4373   -3.1867    0.8035 H   0  0
   -2.6555   -2.8063    1.1891 H   0  0
   -0.3016   -0.8932   -1.3427 H   0  0
    1.8848   -2.5345   -0.6408 H   0  0
    1.8201   -1.4089   -1.9764 H   0  0
    4.9782    1.6784   -1.0638 H   0  0
    6.1820    1.9810    1.4256 H   0  0
    8.0373    1.2820   -1.6544 H   0  0
   10.3938    1.2184   -1.9396 H   0  0
   10.6074    0.4915   -0.2493 H   0  0
    9.1457   -0.8617   -2.6339 H   0  0
    9.4035   -1.5962   -0.9822 H   0  0
    5.1501   -1.0925    2.1895 H   0  0
    3.0500   -2.0639    1.4820 H   0  0
  1  2  2  0  0  0
  2 13  1  0  0  0
  2  3  1  0  0  0
  3  4  2  0  0  0
  4  5  1  0  0  0
  5  6  2  0  0  0
  6 11  1  0  0  0
  6  7  1  0  0  0
  7  9  1  0  0  0
  7  8  1  0  0  0
  9 10  2  0  0  0
 11 12  2  0  0  0
 11 10  1  0  0  0
 12  3  1  0  0  0
 13 14  1  0  0  0
 14 15  1  0  0  0
 15 16  2  0  0  0
 16 21  1  0  0  0
 16 17  1  0  0  0
 17 20  1  0  0  0
 17 19  1  0  0  0
 17 18  1  0  0  0
 21 22  2  0  0  0
 22 30  1  0  0  0
 22 23  1  0  0  0
 23 24  1  0  0  0
 24 29  2  0  0  0
 24 28  2  0  0  0
 24 25  1  0  0  0
 25 26  1  0  0  0
 26 27  1  0  0  0
 27 25  1  0  0  0
 30 31  2  0  0  0
 31 15  1  0  0  0
  4 32  1  0  0  0
  5 33  1  0  0  0
  8 34  1  0  0  0
  8 35  1  0  0  0
  8 36  1  0  0  0
  9 37  1  0  0  0
 10 38  1  0  0  0
 12 39  1  0  0  0
 13 40  1  0  0  0
 14 41  1  0  0  0
 14 42  1  0  0  0
 21 43  1  0  0  0
 23 44  1  0  0  0
 25 45  1  0  0  0
 26 46  1  0  0  0
 26 47  1  0  0  0
 27 48  1  0  0  0
 27 49  1  0  0  0
 30 50  1  0  0  0
 31 51  1  0  0  0
M  END
> <pIC50>
7.886

$$$$
D4_07
  DSViewer          3D                             0

 60 63  0  0  0  0  0  0  0  0999 V2000
    0.0757   -1.6920    1.7644 O   0  0
   -0.3342   -1.5299    0.6276 C   0  0
   -1.6778   -1.0515    0.3841 C   0  0
   -2.7850   -1.6227    0.8800 C   0  0
   -4.0703   -1.0981    0.7059 C   0  0
   -4.2358    0.0870   -0.0194 C   0  0
   -5.2867    0.8608   -0.2953 N   0  0
   -6.6755    0.5311   -0.0499 C   0  0
   -7.5244    0.4108   -1.2730 C   0  0
   -8.8868   -0.1340   -0.7488 C   0  0
   -9.4667    0.8127    0.0711 F   0  0
   -8.7465   -1.3019   -0.0847 F   0  0
   -9.6761   -0.2587   -1.8747 F   0  0
   -7.0516   -0.5474   -2.3183 C   0  0
   -6.9007   -1.8261   -1.8975 F   0  0
   -7.9210   -0.4697   -3.4174 F   0  0
   -5.7805   -0.1024   -2.7508 F   0  0
   -4.8300    1.9462   -0.9918 C   0  0
   -3.4741    1.8563   -1.1524 C   0  0
   -3.1120    0.6847   -0.5371 C   0  0
   -1.8574    0.1314   -0.3443 C   0  0
    0.4604   -1.7723   -0.4868 N   0  0
    1.8053   -2.1740   -0.7154 C   0  0
    2.8705   -1.2955   -0.2301 C   0  0
    3.7581   -0.7394   -1.1654 C   0  0
    3.4907   -0.8972   -2.6385 C   0  0
    2.2228   -0.3569   -2.9357 F   0  0
    3.5942   -2.1903   -3.0729 F   0  0
    4.4159   -0.1725   -3.3407 F   0  0
    4.8261    0.0007   -0.7678 C   0  0
    5.1047    0.2609    0.5815 C   0  0
    6.1578    1.1013    0.9917 N   0  0
    7.7931    1.0761    0.5662 S   0  0
    8.6258   -0.4061    1.0505 C   0  0
    8.2392   -1.0211    2.3740 C   0  0
    7.8533   -1.6662    1.0347 C   0  0
    8.5365    2.2327    1.2393 O   0  0
    8.0058    1.2596   -0.9112 O   0  0
    4.2203   -0.2937    1.4795 C   0  0
    3.1110   -1.0718    1.0819 C   0  0
   -2.7426   -2.5564    1.4673 H   0  0
   -4.9288   -1.5798    1.1191 H   0  0
   -6.6562   -0.5356    0.3921 H   0  0
   -7.0984    1.2088    0.7205 H   0  0
   -7.7606    1.4135   -1.7082 H   0  0
   -5.4828    2.7266   -1.3521 H   0  0
   -2.7868    2.5253   -1.6599 H   0  0
   -0.9799    0.6104   -0.7588 H   0  0
   -0.0691   -1.6334   -1.4715 H   0  0
    1.9386   -3.1381   -0.0394 H   0  0
    2.0003   -2.5672   -1.6763 H   0  0
    5.5092    0.4164   -1.5135 H   0  0
    5.8556    1.8672    1.6781 H   0  0
    9.6989   -0.4564    0.7727 H   0  0
    7.3993   -0.5298    2.8917 H   0  0
    9.0682   -1.4959    2.9658 H   0  0
    8.3833   -2.6457    0.8908 H   0  0
    6.7882   -1.7074    0.7457 H   0  0
    4.3868   -0.1295    2.5480 H   0  0
    2.5413   -1.5023    1.9010 H   0  0
  1  2  2  0  0  0
  2 22  1  0  0  0
  2  3  1  0  0  0
  3  4  2  0  0  0
  4  5  1  0  0  0
  5  6  2  0  0  0
  6 20  1  0  0  0
  6  7  1  0  0  0
  7 18  1  0  0  0
  7  8  1  0  0  0
  8  9  1  0  0  0
  9 14  1  0  0  0
  9 10  1  0  0  0
 10 13  1  0  0  0
 10 12  1  0  0  0
 10 11  1  0  0  0
 14 17  1  0  0  0
 14 16  1  0  0  0
 14 15  1  0  0  0
 18 19  2  0  0  0
 20 21  2  0  0  0
 20 19  1  0  0  0
 21  3  1  0  0  0
 22 23  1  0  0  0
 23 24  1  0  0  0
 24 25  2  0  0  0
 25 30  1  0  0  0
 25 26  1  0  0  0
 26 29  1  0  0  0
 26 28  1  0  0  0
 26 27  1  0  0  0
 30 31  2  0  0  0
 31 39  1  0  0  0
 31 32  1  0  0  0
 32 33  1  0  0  0
 33 38  2  0  0  0
 33 37  2  0  0  0
 33 34  1  0  0  0
 34 35  1  0  0  0
 35 36  1  0  0  0
 36 34  1  0  0  0
 39 40  2  0  0  0
 40 24  1  0  0  0
  4 41  1  0  0  0
  5 42  1  0  0  0
  8 43  1  0  0  0
  8 44  1  0  0  0
  9 45  1  0  0  0
 18 46  1  0  0  0
 19 47  1  0  0  0
 21 48  1  0  0  0
 22 49  1  0  0  0
 23 50  1  0  0  0
 23 51  1  0  0  0
 30 52  1  0  0  0
 32 53  1  0  0  0
 34 54  1  0  0  0
 35 55  1  0  0  0
 35 56  1  0  0  0
 36 57  1  0  0  0
 36 58  1  0  0  0
 39 59  1  0  0  0
 40 60  1  0  0  0
M  END
> <pIC50>
8.523

$$$$
D4_04
  DSViewer          3D                             0

 60 63  0  0  0  0  0  0  0  0999 V2000
   -0.6657   -3.0545   -0.8684 O   0  0
   -0.6959   -1.8886   -0.4173 C   0  0
   -1.9810   -1.2605   -0.1961 C   0  0
   -3.1515   -2.0340   -0.1669 C   0  0
   -4.3903   -1.4697    0.0345 C   0  0
   -4.5086   -0.1041    0.2153 C   0  0
   -5.5601    0.7218    0.4289 N   0  0
   -6.9289    0.3195    0.5251 C   0  0
   -7.3358   -0.0130    1.9437 C   0  0
   -7.2349    1.2221    2.8377 C   0  0
   -8.7933   -0.4253    1.9412 C   0  0
   -5.0767    1.9699    0.5312 C   0  0
   -3.7067    1.9602    0.3842 C   0  0
   -3.3680    0.6300    0.1843 C   0  0
   -2.0920    0.0939   -0.0177 C   0  0
    0.5646   -1.2266   -0.1380 N   0  0
    1.7983   -1.9205   -0.3872 C   0  0
    2.9742   -1.1142   -0.0522 C   0  0
    4.2613   -1.6643   -0.2518 C   0  0
    4.3338   -3.0282   -0.7906 C   0  0
    3.7867   -3.9913    0.0381 F   0  0
    3.8221   -3.1682   -2.0582 F   0  0
    5.6991   -3.3358   -0.9064 F   0  0
    5.3775   -0.9164    0.0599 C   0  0
    5.3187    0.3452    0.5579 C   0  0
    6.4254    1.1383    0.9024 N   0  0
    7.7987    1.4708   -0.0242 S   0  0
    8.7602    0.0486   -0.4453 C   0  0
   10.2807    0.2848   -0.6395 C   0  0
    9.7641   -0.3984    0.5635 C   0  0
    7.4522    2.2483   -1.2932 O   0  0
    8.7242    2.4244    0.7282 O   0  0
    4.0432    0.8650    0.7460 C   0  0
    2.9039    0.1457    0.4456 C   0  0
   -3.0536   -3.1165   -0.3106 H   0  0
   -5.3048   -2.0483    0.0606 H   0  0
   -7.6093    1.1422    0.1822 H   0  0
   -7.1843   -0.5525   -0.1113 H   0  0
   -6.7448   -0.8502    2.3595 H   0  0
   -6.2666    1.7144    2.7560 H   0  0
   -8.0221    1.9431    2.5423 H   0  0
   -7.4826    0.8820    3.8662 H   0  0
   -8.9296   -1.5178    1.8319 H   0  0
   -9.3042   -0.0317    2.8547 H   0  0
   -9.2765    0.0931    1.0877 H   0  0
   -5.6523    2.8658    0.7028 H   0  0
   -3.0214    2.7949    0.4141 H   0  0
   -1.2219    0.7325   -0.0357 H   0  0
    0.4475   -0.2754    0.2342 H   0  0
    1.8617   -2.8482    0.2563 H   0  0
    1.8300   -2.2366   -1.4761 H   0  0
    6.3195   -1.4049   -0.1089 H   0  0
    6.3917    1.5886    1.8789 H   0  0
    8.3064   -0.7297   -1.0564 H   0  0
   10.6226    1.3445   -0.4763 H   0  0
   10.7658   -0.2379   -1.4641 H   0  0
    9.9407   -1.4869    0.6511 H   0  0
    9.7804    0.1530    1.5390 H   0  0
    3.9251    1.8611    1.1387 H   0  0
    1.9667    0.6492    0.6322 H   0  0
  1  2  2  0  0  0
  2 16  1  0  0  0
  2  3  1  0  0  0
  3  4  2  0  0  0
  4  5  1  0  0  0
  5  6  2  0  0  0
  6 14  1  0  0  0
  6  7  1  0  0  0
  7 12  1  0  0  0
  7  8  1  0  0  0
  8  9  1  0  0  0
  9 11  1  0  0  0
  9 10  1  0  0  0
 12 13  2  0  0  0
 14 15  2  0  0  0
 14 13  1  0  0  0
 15  3  1  0  0  0
 16 17  1  0  0  0
 17 18  1  0  0  0
 18 19  2  0  0  0
 19 24  1  0  0  0
 19 20  1  0  0  0
 20 23  1  0  0  0
 20 22  1  0  0  0
 20 21  1  0  0  0
 24 25  2  0  0  0
 25 33  1  0  0  0
 25 26  1  0  0  0
 26 27  1  0  0  0
 27 32  2  0  0  0
 27 31  2  0  0  0
 27 28  1  0  0  0
 28 29  1  0  0  0
 29 30  1  0  0  0
 30 28  1  0  0  0
 33 34  2  0  0  0
 34 18  1  0  0  0
  4 35  1  0  0  0
  5 36  1  0  0  0
  8 37  1  0  0  0
  8 38  1  0  0  0
  9 39  1  0  0  0
 10 40  1  0  0  0
 10 41  1  0  0  0
 10 42  1  0  0  0
 11 43  1  0  0  0
 11 44  1  0  0  0
 11 45  1  0  0  0
 12 46  1  0  0  0
 13 47  1  0  0  0
 15 48  1  0  0  0
 16 49  1  0  0  0
 17 50  1  0  0  0
 17 51  1  0  0  0
 24 52  1  0  0  0
 26 53  1  0  0  0
 28 54  1  0  0  0
 29 55  1  0  0  0
 29 56  1  0  0  0
 30 57  1  0  0  0
 30 58  1  0  0  0
 33 59  1  0  0  0
 34 60  1  0  0  0
M  END
> <pIC50>
8.699

$$$$
D4_51
  DSViewer          3D                             0

 61 64  0  0  0  0  0  0  0  0999 V2000
    0.1574   -1.1980    1.7097 O   0  0
   -0.2786   -1.2559    0.5651 C   0  0
   -1.6654   -0.7323    0.3007 C   0  0
   -1.9229    0.5929    0.2868 C   0  0
   -3.1862    1.1017    0.0235 C   0  0
   -4.2121    0.1775   -0.2231 C   0  0
   -5.5032    0.3479   -0.4789 N   0  0
   -6.2424    1.5767   -0.6779 C   0  0
   -6.3581    1.8671   -2.1529 C   0  0
   -7.6186    1.8049   -2.7964 N   0  0
   -8.8673    1.6559   -2.1127 C   0  0
   -7.6288    1.9737   -4.2562 C   0  0
   -5.3450    2.1670   -2.8261 O   0  0
   -6.0520   -0.8962   -0.6125 C   0  0
   -5.1153   -1.8524   -0.4498 C   0  0
   -3.9084   -1.1533   -0.1943 C   0  0
   -2.6387   -1.6547    0.0624 C   0  0
    0.4943   -1.7588   -0.4589 N   0  0
    1.7785   -2.2711   -0.6865 C   0  0
    2.8851   -1.4102   -0.1961 C   0  0
    3.8403   -0.9857   -1.1444 C   0  0
    3.6918   -1.3132   -2.5624 C   0  0
    4.7094   -0.6942   -3.2629 F   0  0
    2.5303   -0.6877   -3.0989 F   0  0
    3.6892   -2.6370   -2.8985 F   0  0
    4.9207   -0.1868   -0.7899 C   0  0
    5.1057    0.2271    0.5645 C   0  0
    6.1037    1.1928    0.8425 N   0  0
    7.7747    1.0067    0.8370 S   0  0
    8.4802   -0.0753    2.0072 C   0  0
    8.0911    0.2767    3.4484 C   0  0
    7.8450   -1.0745    2.8397 C   0  0
    8.4197    2.3854    1.0657 O   0  0
    8.3197    0.6251   -0.5518 O   0  0
    4.1745   -0.2124    1.4609 C   0  0
    3.1135   -0.9996    1.0768 C   0  0
   -1.1160    1.3164    0.4938 H   0  0
   -3.4331    2.1302    0.0016 H   0  0
   -7.2400    1.5095   -0.2048 H   0  0
   -5.7639    2.4283   -0.1725 H   0  0
   -8.8937    2.0226   -1.0843 H   0  0
   -9.1547    0.5782   -2.1760 H   0  0
   -9.6786    2.2680   -2.6613 H   0  0
   -7.0658    2.8535   -4.6067 H   0  0
   -7.1221    1.0544   -4.6686 H   0  0
   -8.6413    1.9903   -4.6755 H   0  0
   -7.1124   -1.0793   -0.8255 H   0  0
   -5.1834   -2.9371   -0.4931 H   0  0
   -2.4751   -2.7214    0.0641 H   0  0
   -0.1225   -1.7998   -1.4172 H   0  0
    1.9474   -2.8051   -1.6065 H   0  0
    1.8688   -3.1647    0.0772 H   0  0
    5.6531    0.1884   -1.5077 H   0  0
    5.7428    2.1939    1.0886 H   0  0
    9.6156   -0.1829    1.8941 H   0  0
    7.2781    0.9777    3.6132 H   0  0
    8.9501    0.4518    4.1400 H   0  0
    6.7816   -1.3765    2.8616 H   0  0
    8.4953   -1.9123    3.2672 H   0  0
    4.2887    0.0685    2.5126 H   0  0
    2.4581   -1.3704    1.8924 H   0  0
  1  2  2  0  0  0
  2 18  1  0  0  0
  2  3  1  0  0  0
  3  4  2  0  0  0
  4  5  1  0  0  0
  5  6  2  0  0  0
  6 16  1  0  0  0
  6  7  1  0  0  0
  7 14  1  0  0  0
  7  8  1  0  0  0
  8  9  1  0  0  0
  9 13  2  0  0  0
  9 10  1  0  0  0
 10 12  1  0  0  0
 10 11  1  0  0  0
 14 15  2  0  0  0
 16 17  2  0  0  0
 16 15  1  0  0  0
 17  3  1  0  0  0
 18 19  1  0  0  0
 19 20  1  0  0  0
 20 21  2  0  0  0
 21 26  1  0  0  0
 21 22  1  0  0  0
 22 25  1  0  0  0
 22 24  1  0  0  0
 22 23  1  0  0  0
 26 27  2  0  0  0
 27 35  1  0  0  0
 27 28  1  0  0  0
 28 29  1  0  0  0
 29 34  2  0  0  0
 29 33  2  0  0  0
 29 30  1  0  0  0
 30 31  1  0  0  0
 31 32  1  0  0  0
 32 30  1  0  0  0
 35 36  2  0  0  0
 36 20  1  0  0  0
  4 37  1  0  0  0
  5 38  1  0  0  0
  8 39  1  0  0  0
  8 40  1  0  0  0
 11 41  1  0  0  0
 11 42  1  0  0  0
 11 43  1  0  0  0
 12 44  1  0  0  0
 12 45  1  0  0  0
 12 46  1  0  0  0
 14 47  1  0  0  0
 15 48  1  0  0  0
 17 49  1  0  0  0
 18 50  1  0  0  0
 19 51  1  0  0  0
 19 52  1  0  0  0
 26 53  1  0  0  0
 28 54  1  0  0  0
 30 55  1  0  0  0
 31 56  1  0  0  0
 31 57  1  0  0  0
 32 58  1  0  0  0
 32 59  1  0  0  0
 35 60  1  0  0  0
 36 61  1  0  0  0
M  END
> <pIC50>
5.735

$$$$
D4_15
  DSViewer          3D                             0

 54 57  0  0  0  0  0  0  0  0999 V2000
    0.0828   -1.9335    1.8602 O   0  0
   -0.3774   -1.5113    0.8731 C   0  0
   -1.8270   -1.0523    0.7026 C   0  0
   -2.7882   -1.9802    0.5858 C   0  0
   -4.0102   -1.5531    0.0788 C   0  0
   -4.2081   -0.2018   -0.2843 C   0  0
   -5.2444    0.4371   -0.8717 N   0  0
   -6.5385   -0.0970   -1.2140 C   0  0
   -7.5317    0.2009   -0.0927 C   0  0
   -4.8730    1.7468   -1.0932 C   0  0
   -3.5985    1.9229   -0.6399 C   0  0
   -3.1853    0.6891   -0.1313 C   0  0
   -1.9628    0.2690    0.3761 C   0  0
    0.3032   -1.3409   -0.3262 N   0  0
    1.5327   -1.4722   -0.9290 C   0  0
    2.6754   -0.7050   -0.3993 C   0  0
    3.3102    0.2332   -1.2665 C   0  0
    2.6302    0.5493   -2.5217 C   0  0
    2.6608   -0.3735   -3.5201 F   0  0
    3.1893    1.7359   -3.0949 F   0  0
    1.2989    0.9611   -2.2686 F   0  0
    4.4907    0.8616   -0.8590 C   0  0
    5.0232    0.5817    0.3311 C   0  0
    6.1799    1.1803    0.9401 N   0  0
    7.7215    0.6138    0.7004 S   0  0
    8.3346    0.7271   -0.9774 C   0  0
    9.2355    1.9151   -1.2510 C   0  0
    9.8450    0.5441   -1.1275 C   0  0
    7.8679   -0.8348    1.1800 O   0  0
    8.6744    1.4062    1.5862 O   0  0
    4.4073   -0.3497    1.2099 C   0  0
    3.2569   -0.9510    0.8126 C   0  0
   -2.6715   -3.0382    0.8614 H   0  0
   -4.7991   -2.2201   -0.0561 H   0  0
   -6.8854    0.3018   -2.1904 H   0  0
   -6.4458   -1.1877   -1.3213 H   0  0
   -7.0001    0.0360    0.8569 H   0  0
   -7.9097    1.2425   -0.1872 H   0  0
   -8.3381   -0.5351   -0.1924 H   0  0
   -5.5176    2.4932   -1.5741 H   0  0
   -3.0116    2.8203   -0.6449 H   0  0
   -1.1666    0.9682    0.5061 H   0  0
   -0.4452   -0.9102   -1.1014 H   0  0
    1.8374   -2.5926   -0.6305 H   0  0
    1.5390   -1.5547   -2.0188 H   0  0
    4.9601    1.5984   -1.5591 H   0  0
    5.9985    2.0081    1.5589 H   0  0
    7.7685    0.2888   -1.7956 H   0  0
    9.4521    2.5990   -0.3735 H   0  0
    9.2022    2.4376   -2.2130 H   0  0
   10.3608    0.2743   -0.1746 H   0  0
   10.2058   -0.0222   -1.9858 H   0  0
    4.9056   -0.5647    2.1821 H   0  0
    2.7997   -1.6606    1.5348 H   0  0
  1  2  2  0  0  0
  2 14  1  0  0  0
  2  3  1  0  0  0
  3  4  2  0  0  0
  4  5  1  0  0  0
  5  6  2  0  0  0
  6 12  1  0  0  0
  6  7  1  0  0  0
  7 10  1  0  0  0
  7  8  1  0  0  0
  8  9  1  0  0  0
 10 11  2  0  0  0
 12 13  2  0  0  0
 12 11  1  0  0  0
 13  3  1  0  0  0
 14 15  1  0  0  0
 15 16  1  0  0  0
 16 17  2  0  0  0
 17 22  1  0  0  0
 17 18  1  0  0  0
 18 21  1  0  0  0
 18 20  1  0  0  0
 18 19  1  0  0  0
 22 23  2  0  0  0
 23 31  1  0  0  0
 23 24  1  0  0  0
 24 25  1  0  0  0
 25 30  2  0  0  0
 25 29  2  0  0  0
 25 26  1  0  0  0
 26 27  1  0  0  0
 27 28  1  0  0  0
 28 26  1  0  0  0
 31 32  2  0  0  0
 32 16  1  0  0  0
  4 33  1  0  0  0
  5 34  1  0  0  0
  8 35  1  0  0  0
  8 36  1  0  0  0
  9 37  1  0  0  0
  9 38  1  0  0  0
  9 39  1  0  0  0
 10 40  1  0  0  0
 11 41  1  0  0  0
 13 42  1  0  0  0
 14 43  1  0  0  0
 15 44  1  0  0  0
 15 45  1  0  0  0
 22 46  1  0  0  0
 24 47  1  0  0  0
 26 48  1  0  0  0
 27 49  1  0  0  0
 27 50  1  0  0  0
 28 51  1  0  0  0
 28 52  1  0  0  0
 31 53  1  0  0  0
 32 54  1  0  0  0
M  END
> <pIC50>
8.222

$$$$
D4_50
  DSViewer          3D                             0

 49 52  0  0  0  0  0  0  0  0999 V2000
   -0.4003   -2.9226    0.6789 O   0  0
   -0.5377   -1.7719    0.1951 C   0  0
   -1.8620   -1.1750    0.1235 C   0  0
   -2.9739   -1.8834    0.5930 C   0  0
   -4.2400   -1.3603    0.5453 C   0  0
   -4.4690   -0.1029    0.0272 C   0  0
   -5.5893    0.6210   -0.1283 N   0  0
   -6.9279    0.2157    0.2364 C   0  0
   -7.6656   -0.4676   -0.8261 C   0  0
   -8.4131    0.2901   -1.7199 C   0  0
   -9.1080   -0.3532   -2.7181 C   0  0
  -10.0415    0.6390   -3.8285 Cl  0  0
   -9.0993   -1.7322   -2.8777 C   0  0
  -10.0146   -2.4774   -4.1798 Cl  0  0
   -8.3531   -2.4684   -1.9829 C   0  0
   -7.6437   -1.8390   -0.9673 C   0  0
   -5.2131    1.7839   -0.6905 C   0  0
   -3.8810    1.7918   -0.8853 N   0  0
   -5.9459    2.7673   -1.0148 O   0  0
   -3.3988    0.5964   -0.4322 C   0  0
   -2.1234    0.0732   -0.3858 C   0  0
    0.6501   -1.1095   -0.2646 N   0  0
    1.9327   -1.7573   -0.1646 C   0  0
    3.0691   -0.9970   -0.6596 C   0  0
    4.3318   -1.5682   -0.5914 C   0  0
    4.4965   -2.9142   -0.0267 C   0  0
    4.1305   -2.9625    1.3144 F   0  0
    3.8102   -3.8846   -0.7633 F   0  0
    5.8368   -3.3170   -0.0460 F   0  0
    5.4073   -0.8724   -1.0498 C   0  0
    5.3061    0.3870   -1.5854 C   0  0
    4.0675    0.9576   -1.6568 C   0  0
    2.9360    0.2646   -1.1917 C   0  0
   -2.8192   -2.8730    1.0043 H   0  0
   -5.1149   -1.8933    0.9060 H   0  0
   -7.5450    1.1099    0.5449 H   0  0
   -6.9200   -0.4291    1.1630 H   0  0
   -8.4601    1.3750   -1.6473 H   0  0
   -8.3237   -3.5246   -2.0752 H   0  0
   -7.0838   -2.4854   -0.3059 H   0  0
   -3.2786    2.5136   -1.2873 H   0  0
   -1.3072    0.6861   -0.7711 H   0  0
    0.4934   -0.1615   -0.6569 H   0  0
    1.8135   -2.7210   -0.7519 H   0  0
    2.0516   -2.1007    0.8904 H   0  0
    6.4177   -1.3039   -1.0064 H   0  0
    6.2086    0.8993   -1.9388 H   0  0
    3.9648    1.9545   -2.0776 H   0  0
    2.0166    0.7886   -1.2885 H   0  0
  1  2  2  0  0  0
  2 22  1  0  0  0
  2  3  1  0  0  0
  3  4  2  0  0  0
  4  5  1  0  0  0
  5  6  2  0  0  0
  6 20  1  0  0  0
  6  7  1  0  0  0
  7 17  1  0  0  0
  7  8  1  0  0  0
  8  9  1  0  0  0
  9 10  2  0  0  0
 10 11  1  0  0  0
 11 13  2  0  0  0
 11 12  1  0  0  0
 13 15  1  0  0  0
 13 14  1  0  0  0
 15 16  2  0  0  0
 16  9  1  0  0  0
 17 19  2  0  0  0
 17 18  1  0  0  0
 20 21  2  0  0  0
 20 18  1  0  0  0
 21  3  1  0  0  0
 22 23  1  0  0  0
 23 24  1  0  0  0
 24 25  2  0  0  0
 25 30  1  0  0  0
 25 26  1  0  0  0
 26 29  1  0  0  0
 26 28  1  0  0  0
 26 27  1  0  0  0
 30 31  2  0  0  0
 31 32  1  0  0  0
 32 33  2  0  0  0
 33 24  1  0  0  0
  4 34  1  0  0  0
  5 35  1  0  0  0
  8 36  1  0  0  0
  8 37  1  0  0  0
 10 38  1  0  0  0
 15 39  1  0  0  0
 16 40  1  0  0  0
 18 41  1  0  0  0
 21 42  1  0  0  0
 22 43  1  0  0  0
 23 44  1  0  0  0
 23 45  1  0  0  0
 30 46  1  0  0  0
 31 47  1  0  0  0
 32 48  1  0  0  0
 33 49  1  0  0  0
M  END
> <pIC50>
5.961

$$$$
D4_36
  DSViewer          3D                             0

 49 52  0  0  0  0  0  0  0  0999 V2000
   -0.4299   -3.0048    0.6344 O   0  0
   -0.5558   -1.8393    0.1883 C   0  0
   -1.8632   -1.2235    0.1239 C   0  0
   -2.9894   -1.9013    0.6038 C   0  0
   -4.2481   -1.3458    0.5574 C   0  0
   -4.4466   -0.0824    0.0281 C   0  0
   -5.5451    0.6751   -0.1320 N   0  0
   -6.8828    0.3340    0.2264 C   0  0
   -7.6494   -0.3325   -0.8529 C   0  0
   -7.6632   -1.6956   -0.9333 C   0  0
   -8.3709   -2.3704   -1.9356 C   0  0
   -8.3775   -4.1252   -2.0239 Cl  0  0
   -9.0760   -1.6694   -2.8721 C   0  0
   -9.0806   -0.2732   -2.8153 C   0  0
   -8.3706    0.3783   -1.8111 C   0  0
   -5.1555    1.8414   -0.7102 C   0  0
   -3.8165    1.8092   -0.9096 N   0  0
   -5.8588    2.8322   -1.0363 O   0  0
   -3.3593    0.6147   -0.4540 C   0  0
   -2.1129    0.0250   -0.3904 C   0  0
    0.6446   -1.1734   -0.2420 N   0  0
    1.9127   -1.8090   -0.1643 C   0  0
    3.0182   -0.9716   -0.6521 C   0  0
    4.3210   -1.4642   -0.6227 C   0  0
    4.5538   -2.8177   -0.0978 C   0  0
    4.2775   -2.8869    1.2764 F   0  0
    5.9222   -3.1248   -0.1732 F   0  0
    3.9203   -3.8201   -0.7814 F   0  0
    5.3398   -0.6804   -1.0793 C   0  0
    5.1387    0.5891   -1.5735 C   0  0
    3.8686    1.0766   -1.6052 C   0  0
    2.8079    0.2905   -1.1421 C   0  0
   -2.8328   -2.8973    1.0209 H   0  0
   -5.1095   -1.8810    0.9345 H   0  0
   -7.4780    1.2285    0.5738 H   0  0
   -6.9168   -0.3601    1.1173 H   0  0
   -7.1370   -2.3190   -0.2362 H   0  0
   -9.6282   -2.1558   -3.6524 H   0  0
   -9.6409    0.2703   -3.5603 H   0  0
   -8.3522    1.4421   -1.7378 H   0  0
   -3.2203    2.5434   -1.3297 H   0  0
   -1.3038    0.6291   -0.7877 H   0  0
    0.4734   -0.2178   -0.5967 H   0  0
    2.1236   -2.2339    0.8520 H   0  0
    1.9478   -2.7415   -0.8220 H   0  0
    6.3605   -1.0639   -1.0571 H   0  0
    5.9943    1.1571   -1.9199 H   0  0
    3.6812    2.0772   -1.9910 H   0  0
    1.8547    0.7698   -1.2133 H   0  0
  1  2  2  0  0  0
  2 21  1  0  0  0
  2  3  1  0  0  0
  3  4  2  0  0  0
  4  5  1  0  0  0
  5  6  2  0  0  0
  6 19  1  0  0  0
  6  7  1  0  0  0
  7 16  1  0  0  0
  7  8  1  0  0  0
  8  9  1  0  0  0
  9 10  2  0  0  0
 10 11  1  0  0  0
 11 13  2  0  0  0
 11 12  1  0  0  0
 13 14  1  0  0  0
 14 15  2  0  0  0
 15  9  1  0  0  0
 16 18  2  0  0  0
 16 17  1  0  0  0
 19 20  2  0  0  0
 19 17  1  0  0  0
 20  3  1  0  0  0
 21 22  1  0  0  0
 22 23  1  0  0  0
 23 24  2  0  0  0
 24 29  1  0  0  0
 24 25  1  0  0  0
 25 28  1  0  0  0
 25 27  1  0  0  0
 25 26  1  0  0  0
 29 30  2  0  0  0
 30 31  1  0  0  0
 31 32  2  0  0  0
 32 23  1  0  0  0
  4 33  1  0  0  0
  5 34  1  0  0  0
  8 35  1  0  0  0
  8 36  1  0  0  0
 10 37  1  0  0  0
 13 38  1  0  0  0
 14 39  1  0  0  0
 15 40  1  0  0  0
 17 41  1  0  0  0
 20 42  1  0  0  0
 21 43  1  0  0  0
 22 44  1  0  0  0
 22 45  1  0  0  0
 29 46  1  0  0  0
 30 47  1  0  0  0
 31 48  1  0  0  0
 32 49  1  0  0  0
M  END
> <pIC50>
7.06

$$$$
D4_33
  DSViewer          3D                             0

 49 52  0  0  0  0  0  0  0  0999 V2000
    0.1827   -1.2656    1.6938 O   0  0
   -0.2285   -1.2969    0.5499 C   0  0
   -1.6561   -0.9182    0.3293 C   0  0
   -2.6496   -1.7931    0.7038 C   0  0
   -3.9556   -1.3741    0.4803 C   0  0
   -4.2627   -0.1455   -0.0857 C   0  0
   -5.4225    0.4459   -0.3677 N   0  0
   -6.7665    0.0264    0.0589 C   0  0
   -7.0281    1.0058    1.2123 C   0  0
   -6.1539    1.0079    2.2566 C   0  0
   -6.2340    1.9618    3.2863 C   0  0
   -5.3607    1.9617    4.2970 F   0  0
   -7.2216    2.9189    3.2396 C   0  0
   -8.1153    2.9196    2.1754 C   0  0
   -9.0939    3.8654    2.1446 F   0  0
   -8.0049    1.9531    1.1688 C   0  0
   -5.1569    1.6263   -0.9027 C   0  0
   -3.8061    1.8182   -0.9673 N   0  0
   -6.0143    2.4541   -1.2972 O   0  0
   -3.2254    0.7028   -0.4462 C   0  0
   -1.9323    0.2954   -0.2295 C   0  0
    0.4563   -1.6301   -0.5974 N   0  0
    1.7964   -2.0044   -0.8369 C   0  0
    2.8549   -1.0842   -0.3160 C   0  0
    3.7175   -0.4534   -1.1914 C   0  0
    3.4320   -0.5135   -2.6663 C   0  0
    4.2481    0.3586   -3.3149 F   0  0
    2.1309    0.0363   -2.8079 F   0  0
    3.4783   -1.7500   -3.2089 F   0  0
    4.7786    0.2644   -0.7095 C   0  0
    5.0127    0.3906    0.6338 C   0  0
    4.1432   -0.2306    1.5201 C   0  0
    3.0666   -0.9707    1.0344 C   0  0
   -2.4249   -2.7633    1.1702 H   0  0
   -4.7882   -2.0168    0.7435 H   0  0
   -6.7568   -0.9870    0.4874 H   0  0
   -7.4656    0.2058   -0.7500 H   0  0
   -5.3601    0.2664    2.3064 H   0  0
   -7.3263    3.6815    4.0344 H   0  0
   -8.6927    1.9401    0.3229 H   0  0
   -3.3134    2.6440   -1.3267 H   0  0
   -1.1353    0.9785   -0.5327 H   0  0
   -0.1712   -1.6338   -1.5420 H   0  0
    1.9161   -3.0107   -0.2428 H   0  0
    1.9544   -2.3423   -1.8470 H   0  0
    5.4728    0.7440   -1.4118 H   0  0
    5.8532    0.9581    0.9528 H   0  0
    4.3230   -0.1370    2.5796 H   0  0
    2.4853   -1.4457    1.7910 H   0  0
  1  2  2  0  0  0
  2 22  1  0  0  0
  2  3  1  0  0  0
  3  4  2  0  0  0
  4  5  1  0  0  0
  5  6  2  0  0  0
  6 20  1  0  0  0
  6  7  1  0  0  0
  7 17  1  0  0  0
  7  8  1  0  0  0
  8  9  1  0  0  0
  9 10  2  0  0  0
 10 11  1  0  0  0
 11 13  2  0  0  0
 11 12  1  0  0  0
 13 14  1  0  0  0
 14 16  2  0  0  0
 14 15  1  0  0  0
 16  9  1  0  0  0
 17 19  2  0  0  0
 17 18  1  0  0  0
 20 21  2  0  0  0
 20 18  1  0  0  0
 21  3  1  0  0  0
 22 23  1  0  0  0
 23 24  1  0  0  0
 24 25  2  0  0  0
 25 30  1  0  0  0
 25 26  1  0  0  0
 26 29  1  0  0  0
 26 28  1  0  0  0
 26 27  1  0  0  0
 30 31  2  0  0  0
 31 32  1  0  0  0
 32 33  2  0  0  0
 33 24  1  0  0  0
  4 34  1  0  0  0
  5 35  1  0  0  0
  8 36  1  0  0  0
  8 37  1  0  0  0
 10 38  1  0  0  0
 13 39  1  0  0  0
 16 40  1  0  0  0
 18 41  1  0  0  0
 21 42  1  0  0  0
 22 43  1  0  0  0
 23 44  1  0  0  0
 23 45  1  0  0  0
 30 46  1  0  0  0
 31 47  1  0  0  0
 32 48  1  0  0  0
 33 49  1  0  0  0
M  END
> <pIC50>
7.319

$$$$
D4_29
  DSViewer          3D                             0

 64 68  0  0  0  0  0  0  0  0999 V2000
    0.2457   -1.1633    1.6103 O   0  0
   -0.2605   -1.2115    0.4440 C   0  0
   -1.6544   -0.7116    0.3226 C   0  0
   -2.4403   -0.8764    1.4556 C   0  0
   -3.7205   -0.4005    1.5328 C   0  0
   -4.2718    0.2714    0.4568 C   0  0
   -5.4990    0.8272    0.2833 N   0  0
   -6.5625    1.0027    1.2306 C   0  0
   -7.3779   -0.1391    1.6047 C   0  0
   -8.3860   -0.7382    0.9108 C   0  0
   -9.1044   -1.8179    1.4177 C   0  0
  -10.1187   -2.4109    0.6945 F   0  0
   -8.8381   -2.3535    2.6536 C   0  0
   -7.8131   -1.7670    3.3898 C   0  0
   -7.1387   -0.7158    2.8662 C   0  0
   -5.4783    1.3446   -0.9857 C   0  0
   -6.5837    2.0927   -1.6264 C   0  0
   -4.2503    1.0955   -1.5542 C   0  0
   -3.4781    0.4220   -0.6607 C   0  0
   -2.1700   -0.0604   -0.7475 C   0  0
    0.5062   -1.6978   -0.5935 N   0  0
    1.8558   -2.1712   -0.7306 C   0  0
    2.9059   -1.2455   -0.2522 C   0  0
    3.8231   -0.7603   -1.1775 C   0  0
    3.7251   -1.0845   -2.6313 C   0  0
    4.6513   -0.3486   -3.3068 F   0  0
    2.4783   -0.6310   -3.1261 F   0  0
    3.8978   -2.3990   -2.9204 F   0  0
    4.8732    0.0138   -0.7556 C   0  0
    5.1373    0.3810    0.5409 C   0  0
    6.2294    1.1358    0.9945 N   0  0
    7.7261    1.4065    0.2727 S   0  0
    8.7802    0.0735   -0.0716 C   0  0
    8.6886   -1.2984    0.3790 C   0  0
    8.3561   -0.9876   -1.0883 C   0  0
    8.5166    2.3464    1.2083 O   0  0
    7.5609    2.2828   -0.9817 O   0  0
    4.2043   -0.1263    1.4665 C   0  0
    3.1434   -0.9064    1.0378 C   0  0
   -2.0285   -1.3960    2.3247 H   0  0
   -4.3348   -0.5312    2.4170 H   0  0
   -7.2342    1.8273    0.7939 H   0  0
   -6.1535    1.5391    2.1389 H   0  0
   -8.6388   -0.3452   -0.0821 H   0  0
   -9.3865   -3.2236    3.0618 H   0  0
   -7.5752   -2.1686    4.3510 H   0  0
   -6.3552   -0.2542    3.4791 H   0  0
   -6.3519    2.1982   -2.7167 H   0  0
   -6.6549    3.1308   -1.1671 H   0  0
   -7.5508    1.6073   -1.5181 H   0  0
   -3.9598    1.4069   -2.5437 H   0  0
   -1.5577    0.0548   -1.6132 H   0  0
   -0.0387   -1.7477   -1.5390 H   0  0
    1.9702   -3.0417    0.0871 H   0  0
    2.0848   -2.7502   -1.6279 H   0  0
    5.5763    0.4240   -1.5196 H   0  0
    6.0297    1.5988    1.9661 H   0  0
    9.8438    0.4233   -0.4092 H   0  0
    9.6496   -1.8898    0.4804 H   0  0
    7.8240   -1.6329    0.9737 H   0  0
    7.3346   -1.1063   -1.3965 H   0  0
    9.1039   -1.3077   -1.8619 H   0  0
    4.3144    0.1161    2.5112 H   0  0
    2.5260   -1.3167    1.8536 H   0  0
  1  2  2  0  0  0
  2 21  1  0  0  0
  2  3  1  0  0  0
  3  4  2  0  0  0
  4  5  1  0  0  0
  5  6  2  0  0  0
  6 19  1  0  0  0
  6  7  1  0  0  0
  7 16  1  0  0  0
  7  8  1  0  0  0
  8  9  1  0  0  0
  9 10  2  0  0  0
 10 11  1  0  0  0
 11 13  2  0  0  0
 11 12  1  0  0  0
 13 14  1  0  0  0
 14 15  2  0  0  0
 15  9  1  0  0  0
 16 18  2  0  0  0
 16 17  1  0  0  0
 19 20  2  0  0  0
 19 18  1  0  0  0
 20  3  1  0  0  0
 21 22  1  0  0  0
 22 23  1  0  0  0
 23 24  2  0  0  0
 24 29  1  0  0  0
 24 25  1  0  0  0
 25 28  1  0  0  0
 25 27  1  0  0  0
 25 26  1  0  0  0
 29 30  2  0  0  0
 30 38  1  0  0  0
 30 31  1  0  0  0
 31 32  1  0  0  0
 32 37  2  0  0  0
 32 36  2  0  0  0
 32 33  1  0  0  0
 33 34  1  0  0  0
 34 35  1  0  0  0
 35 33  1  0  0  0
 38 39  2  0  0  0
 39 23  1  0  0  0
  4 40  1  0  0  0
  5 41  1  0  0  0
  8 42  1  0  0  0
  8 43  1  0  0  0
 10 44  1  0  0  0
 13 45  1  0  0  0
 14 46  1  0  0  0
 15 47  1  0  0  0
 17 48  1  0  0  0
 17 49  1  0  0  0
 17 50  1  0  0  0
 18 51  1  0  0  0
 20 52  1  0  0  0
 21 53  1  0  0  0
 22 54  1  0  0  0
 22 55  1  0  0  0
 29 56  1  0  0  0
 31 57  1  0  0  0
 33 58  1  0  0  0
 34 59  1  0  0  0
 34 60  1  0  0  0
 35 61  1  0  0  0
 35 62  1  0  0  0
 38 63  1  0  0  0
 39 64  1  0  0  0
M  END
> <pIC50>
7.456

$$$$
D4_28
  DSViewer          3D                             0

 53 56  0  0  0  0  0  0  0  0999 V2000
   -0.6659   -3.1284    0.4461 O   0  0
   -0.6490   -1.8268    0.0716 C   0  0
   -1.9496   -1.2407   -0.0787 C   0  0
   -3.1032   -1.9694    0.0075 C   0  0
   -4.3852   -1.4389   -0.0713 C   0  0
   -4.5326   -0.0863   -0.2407 C   0  0
   -5.6615    0.6698   -0.3078 N   0  0
   -7.0280    0.1523   -0.2432 C   0  0
   -7.7103    0.0827   -1.5175 C   0  0
   -9.0837    0.3098   -1.5815 C   0  0
   -9.8393    0.2753   -2.7255 C   0  0
  -11.1772    0.4947   -2.7119 F   0  0
   -9.1840   -0.0028   -3.9047 C   0  0
   -7.8372   -0.2288   -3.8851 C   0  0
   -7.0932   -0.1876   -2.7081 C   0  0
   -5.2542    1.9254   -0.4478 C   0  0
   -3.8856    1.9603   -0.4659 N   0  0
   -5.9820    2.9542   -0.5427 O   0  0
   -3.4179    0.6801   -0.3315 C   0  0
   -2.1363    0.1290   -0.2535 C   0  0
    0.6225   -1.3140   -0.0975 N   0  0
    1.8851   -2.0305    0.0690 C   0  0
    3.0465   -1.1378    0.1781 C   0  0
    3.9800   -1.0649   -0.7959 C   0  0
    3.8386   -1.7585   -2.0675 C   0  0
    4.6469   -1.2034   -3.0180 F   0  0
    2.4630   -1.7455   -2.4894 F   0  0
    4.0663   -3.1017   -1.9107 F   0  0
    5.0950   -0.3353   -0.5829 C   0  0
    5.3588    0.3500    0.5745 C   0  0
    6.5068    1.1045    0.7862 O   0  0
    7.5105    1.2590   -0.2340 C   0  0
    4.4182    0.2992    1.6083 C   0  0
    3.2942   -0.4351    1.3866 C   0  0
   -2.9829   -3.0707    0.1580 H   0  0
   -5.2593   -2.0627    0.0162 H   0  0
   -7.6259    0.7825    0.4868 H   0  0
   -6.9690   -0.8619    0.2667 H   0  0
   -9.5778    0.5323   -0.6215 H   0  0
   -9.7249   -0.0432   -4.8267 H   0  0
   -7.3668   -0.4452   -4.8317 H   0  0
   -6.0413   -0.3730   -2.7776 H   0  0
   -3.2645    2.7847   -0.5592 H   0  0
   -1.2855    0.7566   -0.3418 H   0  0
    0.6511   -0.2772   -0.3749 H   0  0
    1.9846   -3.0120   -0.3734 H   0  0
    1.7182   -2.3516    1.2188 H   0  0
    5.8750   -0.2481   -1.3707 H   0  0
    7.0897    1.9514   -1.0247 H   0  0
    7.7784    0.2794   -0.6514 H   0  0
    8.3869    1.7257    0.2278 H   0  0
    4.5991    0.8322    2.5421 H   0  0
    2.5566   -0.5055    2.1636 H   0  0
  1  2  2  0  0  0
  2 21  1  0  0  0
  2  3  1  0  0  0
  3  4  2  0  0  0
  4  5  1  0  0  0
  5  6  2  0  0  0
  6 19  1  0  0  0
  6  7  1  0  0  0
  7 16  1  0  0  0
  7  8  1  0  0  0
  8  9  1  0  0  0
  9 10  2  0  0  0
 10 11  1  0  0  0
 11 13  2  0  0  0
 11 12  1  0  0  0
 13 14  1  0  0  0
 14 15  2  0  0  0
 15  9  1  0  0  0
 16 18  2  0  0  0
 16 17  1  0  0  0
 19 20  2  0  0  0
 19 17  1  0  0  0
 20  3  1  0  0  0
 21 22  1  0  0  0
 22 23  1  0  0  0
 23 24  2  0  0  0
 24 29  1  0  0  0
 24 25  1  0  0  0
 25 28  1  0  0  0
 25 27  1  0  0  0
 25 26  1  0  0  0
 29 30  2  0  0  0
 30 33  1  0  0  0
 30 31  1  0  0  0
 31 32  1  0  0  0
 33 34  2  0  0  0
 34 23  1  0  0  0
  4 35  1  0  0  0
  5 36  1  0  0  0
  8 37  1  0  0  0
  8 38  1  0  0  0
 10 39  1  0  0  0
 13 40  1  0  0  0
 14 41  1  0  0  0
 15 42  1  0  0  0
 17 43  1  0  0  0
 20 44  1  0  0  0
 21 45  1  0  0  0
 22 46  1  0  0  0
 22 47  1  0  0  0
 29 48  1  0  0  0
 32 49  1  0  0  0
 32 50  1  0  0  0
 32 51  1  0  0  0
 33 52  1  0  0  0
 34 53  1  0  0  0
M  END
> <pIC50>
7.538

$$$$
D4_40
  DSViewer          3D                             0

 49 52  0  0  0  0  0  0  0  0999 V2000
   -0.2717   -2.6844    1.2087 O   0  0
   -0.5168   -1.6895    0.4661 C   0  0
   -1.8273   -1.1422    0.2696 C   0  0
   -2.9443   -1.8774    0.6325 C   0  0
   -4.2259   -1.4087    0.4782 C   0  0
   -4.4409   -0.1475   -0.0623 C   0  0
   -5.5371    0.5818   -0.3361 N   0  0
   -6.9154    0.1921   -0.1186 C   0  0
   -7.4746   -0.4793   -1.3024 C   0  0
   -7.4281   -1.8429   -1.4514 C   0  0
   -7.9547   -2.4631   -2.5681 C   0  0
   -7.8712   -3.8017   -2.6415 F   0  0
   -8.5363   -1.7043   -3.5491 C   0  0
   -8.6060   -0.3237   -3.4414 C   0  0
   -8.0735    0.2544   -2.3208 C   0  0
   -5.1357    1.7539   -0.8603 C   0  0
   -3.7962    1.7486   -0.9103 N   0  0
   -5.8834    2.7099   -1.2458 O   0  0
   -3.3196    0.5686   -0.4169 C   0  0
   -2.0200    0.0976   -0.2620 C   0  0
    0.6106   -1.0978   -0.2063 N   0  0
    1.9195   -1.6411   -0.0100 C   0  0
    2.9701   -0.9366   -0.7580 C   0  0
    4.2920   -1.4150   -0.6171 C   0  0
    4.5924   -2.5838    0.2507 C   0  0
    3.9621   -3.7259   -0.2382 F   0  0
    4.1929   -2.3957    1.5565 F   0  0
    5.9585   -2.8405    0.2117 F   0  0
    5.3404   -0.8193   -1.2767 C   0  0
    5.1225    0.2637   -2.0943 C   0  0
    3.8615    0.7616   -2.2617 C   0  0
    2.8067    0.1455   -1.5847 C   0  0
   -2.8331   -2.8781    1.0635 H   0  0
   -5.1007   -1.9924    0.7681 H   0  0
   -7.0215   -0.4521    0.7872 H   0  0
   -7.4801    1.1203    0.1109 H   0  0
   -6.9603   -2.4386   -0.6566 H   0  0
   -8.9584   -2.1723   -4.4392 H   0  0
   -9.0748    0.2774   -4.2341 H   0  0
   -8.1031    1.3291   -2.1896 H   0  0
   -3.1926    2.5348   -1.2752 H   0  0
   -1.2330    0.7650   -0.5773 H   0  0
    0.4021   -0.2896   -0.8163 H   0  0
    1.9302   -2.7382   -0.2354 H   0  0
    2.1331   -1.5922    1.0953 H   0  0
    6.3589   -1.2248   -1.1388 H   0  0
    5.9649    0.6974   -2.5889 H   0  0
    3.6709    1.6051   -2.8949 H   0  0
    1.8102    0.5516   -1.7269 H   0  0
  1  2  2  0  0  0
  2 21  1  0  0  0
  2  3  1  0  0  0
  3  4  2  0  0  0
  4  5  1  0  0  0
  5  6  2  0  0  0
  6 19  1  0  0  0
  6  7  1  0  0  0
  7 16  1  0  0  0
  7  8  1  0  0  0
  8  9  1  0  0  0
  9 10  2  0  0  0
 10 11  1  0  0  0
 11 13  2  0  0  0
 11 12  1  0  0  0
 13 14  1  0  0  0
 14 15  2  0  0  0
 15  9  1  0  0  0
 16 18  2  0  0  0
 16 17  1  0  0  0
 19 20  2  0  0  0
 19 17  1  0  0  0
 20  3  1  0  0  0
 21 22  1  0  0  0
 22 23  1  0  0  0
 23 24  2  0  0  0
 24 29  1  0  0  0
 24 25  1  0  0  0
 25 28  1  0  0  0
 25 27  1  0  0  0
 25 26  1  0  0  0
 29 30  2  0  0  0
 30 31  1  0  0  0
 31 32  2  0  0  0
 32 23  1  0  0  0
  4 33  1  0  0  0
  5 34  1  0  0  0
  8 35  1  0  0  0
  8 36  1  0  0  0
 10 37  1  0  0  0
 13 38  1  0  0  0
 14 39  1  0  0  0
 15 40  1  0  0  0
 17 41  1  0  0  0
 20 42  1  0  0  0
 21 43  1  0  0  0
 22 44  1  0  0  0
 22 45  1  0  0  0
 29 46  1  0  0  0
 30 47  1  0  0  0
 31 48  1  0  0  0
 32 49  1  0  0  0
M  END
> <pIC50>
6.815

$$$$
D4_17
  DSViewer          3D                             0

 58 61  0  0  0  0  0  0  0  0999 V2000
    0.0236   -1.3217    1.9929 O   0  0
   -0.3600   -1.2520    0.8555 C   0  0
   -1.7711   -0.9078    0.5476 C   0  0
   -2.7073   -1.8530    0.3076 C   0  0
   -3.9770   -1.5047   -0.1489 C   0  0
   -4.2439   -0.1743   -0.3488 C   0  0
   -5.3773    0.4220   -0.7551 N   0  0
   -6.7105   -0.2770   -0.9399 C   0  0
   -7.1773   -0.0628    0.5110 C   0  0
   -6.7950   -0.9507    1.4517 C   0  0
   -6.9860   -0.6166    2.8023 C   0  0
   -6.5725   -1.4862    3.7481 F   0  0
   -7.5376    0.5768    3.1295 C   0  0
   -7.9341    1.4877    2.1451 C   0  0
   -7.7430    1.1299    0.8055 C   0  0
   -5.1957    1.7302   -0.7982 C   0  0
   -3.8825    2.0160   -0.3916 C   0  0
   -3.3016    0.8098   -0.1109 C   0  0
   -2.0333    0.4517    0.3497 C   0  0
    0.3898   -1.4553   -0.2940 N   0  0
    1.6997   -1.7556   -0.6275 C   0  0
    2.8181   -0.8589   -0.2145 C   0  0
    3.7146   -0.4909   -1.2298 C   0  0
    3.2116   -0.5764   -2.6179 C   0  0
    4.0722    0.0987   -3.4396 F   0  0
    2.0170    0.2375   -2.6784 F   0  0
    2.9372   -1.7913   -3.1129 F   0  0
    4.9366    0.0258   -0.9167 C   0  0
    5.3200    0.1898    0.4029 C   0  0
    6.8188    0.4919    0.6023 C   0  0
    7.4276   -1.1784    0.3097 S   0  0
    9.1276   -1.4304    0.4162 C   0  0
    6.5916   -2.0894    1.1828 O   0  0
    6.9367   -1.4926   -1.1166 O   0  0
    4.4870   -0.1421    1.4082 C   0  0
    3.2141   -0.6718    1.0849 C   0  0
   -2.4791   -2.9013    0.4559 H   0  0
   -4.7299   -2.2433   -0.3577 H   0  0
   -7.2557    0.2898   -1.6519 H   0  0
   -6.4692   -1.2943   -1.1592 H   0  0
   -6.3635   -1.9197    1.2679 H   0  0
   -7.6605    0.8264    4.1825 H   0  0
   -8.3793    2.4308    2.3955 H   0  0
   -8.0523    1.8319    0.0367 H   0  0
   -5.8769    2.5162   -1.0758 H   0  0
   -3.4016    2.9649   -0.2981 H   0  0
   -1.2595    1.1780    0.5496 H   0  0
   -0.2765   -1.3937   -1.2367 H   0  0
    1.8847   -2.3996   -1.4875 H   0  0
    1.9155   -2.6696    0.2029 H   0  0
    5.6281    0.3353   -1.6844 H   0  0
    7.1303    1.2061   -0.1379 H   0  0
    6.9674    0.8187    1.6163 H   0  0
    9.2949   -2.5655    0.2760 H   0  0
    9.6635   -1.0164   -0.4604 H   0  0
    9.5562   -1.2169    1.3899 H   0  0
    4.7574   -0.0097    2.4435 H   0  0
    2.5799   -0.9504    1.9085 H   0  0
  1  2  2  0  0  0
  2 20  1  0  0  0
  2  3  1  0  0  0
  3  4  2  0  0  0
  4  5  1  0  0  0
  5  6  2  0  0  0
  6 18  1  0  0  0
  6  7  1  0  0  0
  7 16  1  0  0  0
  7  8  1  0  0  0
  8  9  1  0  0  0
  9 10  2  0  0  0
 10 11  1  0  0  0
 11 13  2  0  0  0
 11 12  1  0  0  0
 13 14  1  0  0  0
 14 15  2  0  0  0
 15  9  1  0  0  0
 16 17  2  0  0  0
 18 19  2  0  0  0
 18 17  1  0  0  0
 19  3  1  0  0  0
 20 21  1  0  0  0
 21 22  1  0  0  0
 22 23  2  0  0  0
 23 28  1  0  0  0
 23 24  1  0  0  0
 24 27  1  0  0  0
 24 26  1  0  0  0
 24 25  1  0  0  0
 28 29  2  0  0  0
 29 35  1  0  0  0
 29 30  1  0  0  0
 30 31  1  0  0  0
 31 34  2  0  0  0
 31 33  2  0  0  0
 31 32  1  0  0  0
 35 36  2  0  0  0
 36 22  1  0  0  0
  4 37  1  0  0  0
  5 38  1  0  0  0
  8 39  1  0  0  0
  8 40  1  0  0  0
 10 41  1  0  0  0
 13 42  1  0  0  0
 14 43  1  0  0  0
 15 44  1  0  0  0
 16 45  1  0  0  0
 17 46  1  0  0  0
 19 47  1  0  0  0
 20 48  1  0  0  0
 21 49  1  0  0  0
 21 50  1  0  0  0
 28 51  1  0  0  0
 30 52  1  0  0  0
 30 53  1  0  0  0
 32 54  1  0  0  0
 32 55  1  0  0  0
 32 56  1  0  0  0
 35 57  1  0  0  0
 36 58  1  0  0  0
M  END
> <pIC50>
8.222

$$$$
D4_16
  DSViewer          3D                             0

 56 59  0  0  0  0  0  0  0  0999 V2000
   -0.7172   -3.1377   -0.8392 O   0  0
   -0.6670   -2.0071   -0.3209 C   0  0
   -1.9559   -1.3495   -0.0970 C   0  0
   -2.0080    0.0612   -0.1974 C   0  0
   -3.1805    0.7364   -0.3034 C   0  0
   -4.3987    0.1186   -0.3193 C   0  0
   -5.6751    0.5724   -0.5356 N   0  0
   -6.1923    1.9220   -0.5914 C   0  0
   -7.3912    2.0389    0.2714 C   0  0
   -8.6103    1.9760   -0.4375 C   0  0
   -9.7810    2.0448    0.2505 C   0  0
  -10.9549    1.9991   -0.4064 F   0  0
   -9.7762    2.1774    1.6442 C   0  0
   -8.5675    2.2455    2.3220 C   0  0
   -7.3787    2.1696    1.6026 C   0  0
   -6.4584   -0.5438   -0.5519 C   0  0
   -5.7001   -1.6718   -0.3529 C   0  0
   -4.3751   -1.2822   -0.2098 C   0  0
   -3.1829   -1.9987   -0.0986 C   0  0
    0.5683   -1.4016   -0.0347 N   0  0
    1.8457   -1.9654   -0.4756 C   0  0
    2.9912   -1.0747   -0.1622 C   0  0
    3.9544   -0.7358   -1.1226 C   0  0
    3.5020   -0.9717   -2.5477 C   0  0
    2.3748   -0.1449   -2.8169 F   0  0
    3.3268   -2.2458   -2.9236 F   0  0
    4.5267   -0.4555   -3.3499 F   0  0
    5.1007   -0.0687   -0.8499 C   0  0
    5.3870    0.3302    0.4532 C   0  0
    6.6836    1.0710    0.6181 C   0  0
    7.9573    0.1116    1.4749 S   0  0
    9.5264    0.9738    1.3212 C   0  0
    4.4919    0.0195    1.3968 C   0  0
    3.3065   -0.6684    1.1069 C   0  0
   -1.0256    0.5327   -0.1917 H   0  0
   -3.2004    1.8346   -0.4010 H   0  0
   -5.3866    2.6523   -0.1989 H   0  0
   -6.3640    2.1957   -1.6474 H   0  0
   -8.5764    1.8659   -1.5355 H   0  0
  -10.7103    2.2272    2.1734 H   0  0
   -8.6064    2.3672    3.3885 H   0  0
   -6.4536    2.2196    2.1344 H   0  0
   -7.5253   -0.5764   -0.7307 H   0  0
   -6.0518   -2.7218   -0.3257 H   0  0
   -3.2257   -3.0404    0.0282 H   0  0
    0.5864   -0.5214    0.5516 H   0  0
    1.9814   -2.8373    0.3130 H   0  0
    1.7799   -2.4887   -1.3949 H   0  0
    5.7765    0.1740   -1.6957 H   0  0
    6.5362    2.0780    0.9689 H   0  0
    7.1226    1.2097   -0.4423 H   0  0
    9.8752    1.3866    2.2668 H   0  0
   10.3087    0.2991    0.8719 H   0  0
    9.4206    1.7915    0.5764 H   0  0
    4.6793    0.3088    2.4202 H   0  0
    2.6361   -0.9248    1.9378 H   0  0
  1  2  2  0  0  0
  2 20  1  0  0  0
  2  3  1  0  0  0
  3  4  2  0  0  0
  4  5  1  0  0  0
  5  6  2  0  0  0
  6 18  1  0  0  0
  6  7  1  0  0  0
  7 16  1  0  0  0
  7  8  1  0  0  0
  8  9  1  0  0  0
  9 10  2  0  0  0
 10 11  1  0  0  0
 11 13  2  0  0  0
 11 12  1  0  0  0
 13 14  1  0  0  0
 14 15  2  0  0  0
 15  9  1  0  0  0
 16 17  2  0  0  0
 18 19  2  0  0  0
 18 17  1  0  0  0
 19  3  1  0  0  0
 20 21  1  0  0  0
 21 22  1  0  0  0
 22 23  2  0  0  0
 23 28  1  0  0  0
 23 24  1  0  0  0
 24 27  1  0  0  0
 24 26  1  0  0  0
 24 25  1  0  0  0
 28 29  2  0  0  0
 29 33  1  0  0  0
 29 30  1  0  0  0
 30 31  1  0  0  0
 31 32  1  0  0  0
 33 34  2  0  0  0
 34 22  1  0  0  0
  4 35  1  0  0  0
  5 36  1  0  0  0
  8 37  1  0  0  0
  8 38  1  0  0  0
 10 39  1  0  0  0
 13 40  1  0  0  0
 14 41  1  0  0  0
 15 42  1  0  0  0
 16 43  1  0  0  0
 17 44  1  0  0  0
 19 45  1  0  0  0
 20 46  1  0  0  0
 21 47  1  0  0  0
 21 48  1  0  0  0
 28 49  1  0  0  0
 30 50  1  0  0  0
 30 51  1  0  0  0
 32 52  1  0  0  0
 32 53  1  0  0  0
 32 54  1  0  0  0
 33 55  1  0  0  0
 34 56  1  0  0  0
M  END
> <pIC50>
8.222

$$$$
D4_19
  DSViewer          3D                             0

 51 54  0  0  0  0  0  0  0  0999 V2000
   -0.6454   -3.0355   -0.7677 O   0  0
   -0.6824   -1.8378   -0.3586 C   0  0
   -1.9548   -1.2026   -0.1664 C   0  0
   -2.1540    0.1221    0.0722 C   0  0
   -3.4370    0.6307    0.2493 C   0  0
   -4.5541   -0.1636    0.1937 C   0  0
   -5.8598    0.0857    0.3288 N   0  0
   -6.4859    1.3691    0.5880 C   0  0
   -6.7977    2.0192   -0.7101 C   0  0
   -5.9011    2.8470   -1.3196 C   0  0
   -6.1803    3.4670   -2.5440 C   0  0
   -5.2794    4.2863   -3.1362 F   0  0
   -7.3927    3.2326   -3.1457 C   0  0
   -8.3113    2.3988   -2.5444 C   0  0
   -8.0060    1.7946   -1.3244 C   0  0
   -6.5640   -1.0720    0.1828 C   0  0
   -5.6358   -2.0571   -0.0502 C   0  0
   -4.3553   -1.5064   -0.0480 C   0  0
   -3.0891   -2.0105   -0.2231 C   0  0
    0.5389   -1.1263   -0.0905 N   0  0
    1.7806   -1.7939   -0.2955 C   0  0
    2.9903   -1.0173   -0.0047 C   0  0
    4.2280   -1.6242   -0.2015 C   0  0
    4.2725   -3.0260   -0.6915 C   0  0
    3.7955   -3.1069   -1.9848 F   0  0
    5.6167   -3.4317   -0.7418 F   0  0
    3.6678   -3.9263    0.1567 F   0  0
    5.4199   -0.9406    0.0546 C   0  0
    5.4344    0.3534    0.5097 C   0  0
    6.6653    1.0283    0.7633 N   0  0
    4.2123    0.9526    0.7041 C   0  0
    3.0125    0.2825    0.4526 C   0  0
   -1.2978    0.7822    0.1209 H   0  0
   -3.5100    1.6885    0.4345 H   0  0
   -7.4134    1.1795    1.1550 H   0  0
   -5.7848    2.0304    1.1611 H   0  0
   -4.9472    3.0646   -0.8988 H   0  0
   -7.6220    3.7151   -4.1083 H   0  0
   -9.2574    2.2118   -3.0073 H   0  0
   -8.7042    1.1322   -0.8211 H   0  0
   -7.6364   -1.1733    0.2419 H   0  0
   -5.8400   -3.0958   -0.2117 H   0  0
   -2.9877   -3.0723   -0.4100 H   0  0
    0.4390   -0.1575    0.2421 H   0  0
    1.7875   -2.7448    0.2851 H   0  0
    1.8258   -2.1302   -1.3738 H   0  0
    6.3735   -1.4630   -0.1164 H   0  0
    6.7961    1.4738    1.6959 H   0  0
    7.4450    1.1067    0.0781 H   0  0
    4.1981    1.9726    1.0625 H   0  0
    2.0915    0.7974    0.6215 H   0  0
  1  2  2  0  0  0
  2 20  1  0  0  0
  2  3  1  0  0  0
  3  4  2  0  0  0
  4  5  1  0  0  0
  5  6  2  0  0  0
  6 18  1  0  0  0
  6  7  1  0  0  0
  7 16  1  0  0  0
  7  8  1  0  0  0
  8  9  1  0  0  0
  9 10  2  0  0  0
 10 11  1  0  0  0
 11 13  2  0  0  0
 11 12  1  0  0  0
 13 14  1  0  0  0
 14 15  2  0  0  0
 15  9  1  0  0  0
 16 17  2  0  0  0
 18 19  2  0  0  0
 18 17  1  0  0  0
 19  3  1  0  0  0
 20 21  1  0  0  0
 21 22  1  0  0  0
 22 23  2  0  0  0
 23 28  1  0  0  0
 23 24  1  0  0  0
 24 27  1  0  0  0
 24 26  1  0  0  0
 24 25  1  0  0  0
 28 29  2  0  0  0
 29 31  1  0  0  0
 29 30  1  0  0  0
 31 32  2  0  0  0
 32 22  1  0  0  0
  4 33  1  0  0  0
  5 34  1  0  0  0
  8 35  1  0  0  0
  8 36  1  0  0  0
 10 37  1  0  0  0
 13 38  1  0  0  0
 14 39  1  0  0  0
 15 40  1  0  0  0
 16 41  1  0  0  0
 17 42  1  0  0  0
 19 43  1  0  0  0
 20 44  1  0  0  0
 21 45  1  0  0  0
 21 46  1  0  0  0
 28 47  1  0  0  0
 30 48  1  0  0  0
 30 49  1  0  0  0
 31 50  1  0  0  0
 32 51  1  0  0  0
M  END
> <pIC50>
8.155

$$$$
D4_14
  DSViewer          3D                             0

 56 59  0  0  0  0  0  0  0  0999 V2000
    0.2347   -1.6983    1.7437 O   0  0
   -0.2175   -1.3567    0.6732 C   0  0
   -1.6605   -0.8539    0.5463 C   0  0
   -2.6370   -1.4878    1.2257 C   0  0
   -3.9698   -1.1159    0.9474 C   0  0
   -4.2675   -0.1463    0.0191 C   0  0
   -5.4652    0.3549   -0.4616 N   0  0
   -6.6673   -0.1854    0.1048 C   0  0
   -7.9529    0.1138   -0.4548 C   0  0
   -8.5855    1.3188   -0.2490 C   0  0
   -9.8733    1.5855   -0.6952 C   0  0
  -10.4573    2.7817   -0.4671 F   0  0
  -10.5771    0.6219   -1.3762 C   0  0
   -9.9599   -0.5946   -1.5903 C   0  0
   -8.6913   -0.8448   -1.1500 C   0  0
   -5.1781    1.2582   -1.3978 C   0  0
   -3.7899    1.3623   -1.5382 C   0  0
   -3.2460    0.4715   -0.6403 C   0  0
   -1.9270    0.1158   -0.3699 C   0  0
    0.4369   -1.3608   -0.5317 N   0  0
    1.6836   -1.6421   -1.0978 C   0  0
    2.7718   -0.9201   -0.4626 C   0  0
    3.6921   -0.2194   -1.2702 C   0  0
    3.2944   -0.0220   -2.6845 C   0  0
    1.9717    0.5974   -2.6480 F   0  0
    4.0665    0.9619   -3.2304 F   0  0
    3.2191   -1.0942   -3.4645 F   0  0
    4.8354    0.3424   -0.7687 C   0  0
    5.1342    0.2417    0.5879 C   0  0
    6.3018    0.9198    1.0386 N   0  0
    6.5934    1.1577    2.3991 C   0  0
    7.8326    1.9139    2.7772 C   0  0
    7.8432    2.0661    4.1516 F   0  0
    8.9498    1.2390    2.4153 F   0  0
    7.8166    3.1544    2.1323 F   0  0
    5.8388    0.7589    3.3125 O   0  0
    4.2707   -0.4333    1.3808 C   0  0
    3.1108   -1.0017    0.8533 C   0  0
   -2.4292   -2.2383    1.9669 H   0  0
   -4.7652   -1.6051    1.4741 H   0  0
   -6.6563    0.0001    1.2055 H   0  0
   -6.5351   -1.3547    0.0803 H   0  0
   -8.0504    2.1253    0.2886 H   0  0
  -11.5675    0.8163   -1.7188 H   0  0
  -10.5543   -1.3464   -2.1360 H   0  0
   -8.2246   -1.7978   -1.3245 H   0  0
   -5.9286    1.7902   -1.9544 H   0  0
   -3.3011    2.0109   -2.2191 H   0  0
   -1.1382    0.6509   -0.8898 H   0  0
   -0.2787   -1.0441   -1.3879 H   0  0
    1.6969   -1.7709   -2.1773 H   0  0
    1.8923   -2.7610   -0.7736 H   0  0
    5.5136    0.8825   -1.4124 H   0  0
    7.0012    1.2739    0.3431 H   0  0
    4.4337   -0.5813    2.4361 H   0  0
    2.5263   -1.5690    1.5782 H   0  0
  1  2  2  0  0  0
  2 20  1  0  0  0
  2  3  1  0  0  0
  3  4  2  0  0  0
  4  5  1  0  0  0
  5  6  2  0  0  0
  6 18  1  0  0  0
  6  7  1  0  0  0
  7 16  1  0  0  0
  7  8  1  0  0  0
  8  9  1  0  0  0
  9 10  2  0  0  0
 10 11  1  0  0  0
 11 13  2  0  0  0
 11 12  1  0  0  0
 13 14  1  0  0  0
 14 15  2  0  0  0
 15  9  1  0  0  0
 16 17  2  0  0  0
 18 19  2  0  0  0
 18 17  1  0  0  0
 19  3  1  0  0  0
 20 21  1  0  0  0
 21 22  1  0  0  0
 22 23  2  0  0  0
 23 28  1  0  0  0
 23 24  1  0  0  0
 24 27  1  0  0  0
 24 26  1  0  0  0
 24 25  1  0  0  0
 28 29  2  0  0  0
 29 37  1  0  0  0
 29 30  1  0  0  0
 30 31  1  0  0  0
 31 36  2  0  0  0
 31 32  1  0  0  0
 32 35  1  0  0  0
 32 34  1  0  0  0
 32 33  1  0  0  0
 37 38  2  0  0  0
 38 22  1  0  0  0
  4 39  1  0  0  0
  5 40  1  0  0  0
  8 41  1  0  0  0
  8 42  1  0  0  0
 10 43  1  0  0  0
 13 44  1  0  0  0
 14 45  1  0  0  0
 15 46  1  0  0  0
 16 47  1  0  0  0
 17 48  1  0  0  0
 19 49  1  0  0  0
 20 50  1  0  0  0
 21 51  1  0  0  0
 21 52  1  0  0  0
 28 53  1  0  0  0
 30 54  1  0  0  0
 37 55  1  0  0  0
 38 56  1  0  0  0
M  END
> <pIC50>
8.301

$$$$
D4_13
  DSViewer          3D                             0

 57 60  0  0  0  0  0  0  0  0999 V2000
   -0.4029   -2.3292    1.3864 O   0  0
   -0.5284   -1.5236    0.3123 C   0  0
   -1.8690   -1.1492    0.0455 C   0  0
   -2.9504   -1.7998    0.6738 C   0  0
   -4.2197   -1.2989    0.6393 C   0  0
   -4.5574   -0.1225   -0.0131 C   0  0
   -5.6728    0.6106   -0.0968 N   0  0
   -6.9810    0.2856    0.3608 C   0  0
   -7.9845    0.2923   -0.7547 C   0  0
   -8.7132    1.4808   -0.9149 C   0  0
   -9.6258    1.6061   -1.9328 C   0  0
  -10.3860    2.7097   -2.1179 F   0  0
   -9.8483    0.5517   -2.8263 C   0  0
   -9.1047   -0.6014   -2.6236 C   0  0
   -8.1776   -0.7337   -1.5995 C   0  0
   -5.3908    1.7331   -0.7784 C   0  0
   -4.0772    1.7152   -1.1302 C   0  0
   -3.5170    0.5127   -0.6361 C   0  0
   -2.2111    0.0275   -0.6190 C   0  0
    0.6906   -1.2032   -0.2796 N   0  0
    1.8735   -1.7004    0.3635 C   0  0
    3.1134   -0.9552    0.2276 C   0  0
    3.6332   -0.3813    1.4397 C   0  0
    2.7519   -0.3644    2.6592 C   0  0
    3.2811    0.4584    3.6331 F   0  0
    1.5333    0.2733    2.2529 F   0  0
    2.4711   -1.5732    3.1716 F   0  0
    4.8468    0.1835    1.4348 C   0  0
    5.6854    0.2638    0.2947 C   0  0
    6.9504    0.8466    0.4359 N   0  0
    8.4677    0.0733    0.4055 S   0  0
    8.6091   -1.0850    1.7882 C   0  0
    9.5744    1.0701    0.5654 O   0  0
    8.7466   -0.6642   -0.8862 O   0  0
    5.1889   -0.2809   -0.8474 C   0  0
    3.8977   -0.8860   -0.8593 C   0  0
   -2.7124   -2.7255    1.2047 H   0  0
   -5.0232   -1.8184    1.1567 H   0  0
   -6.9248   -0.8323    0.6593 H   0  0
   -7.3228    0.7594    1.2950 H   0  0
   -8.5269    2.2815   -0.2012 H   0  0
  -10.5844    0.6434   -3.6303 H   0  0
   -9.2718   -1.4154   -3.3150 H   0  0
   -7.6156   -1.6595   -1.5002 H   0  0
   -6.1337    2.5383   -0.9986 H   0  0
   -3.5208    2.4272   -1.6764 H   0  0
   -1.4460    0.5490   -1.1276 H   0  0
    0.6801   -0.6694   -1.1432 H   0  0
    2.1072   -2.6822   -0.3042 H   0  0
    1.6963   -2.2032    1.3171 H   0  0
    5.2177    0.6236    2.3810 H   0  0
    6.9428    1.9134    0.5529 H   0  0
    9.2723   -0.6293    2.5845 H   0  0
    9.0929   -2.0125    1.4885 H   0  0
    7.6472   -1.1985    2.2920 H   0  0
    5.7603   -0.2558   -1.7452 H   0  0
    3.6153   -1.3045   -1.8445 H   0  0
  1  2  2  0  0  0
  2 20  1  0  0  0
  2  3  1  0  0  0
  3  4  2  0  0  0
  4  5  1  0  0  0
  5  6  2  0  0  0
  6 18  1  0  0  0
  6  7  1  0  0  0
  7 16  1  0  0  0
  7  8  1  0  0  0
  8  9  1  0  0  0
  9 10  2  0  0  0
 10 11  1  0  0  0
 11 13  2  0  0  0
 11 12  1  0  0  0
 13 14  1  0  0  0
 14 15  2  0  0  0
 15  9  1  0  0  0
 16 17  2  0  0  0
 18 19  2  0  0  0
 18 17  1  0  0  0
 19  3  1  0  0  0
 20 21  1  0  0  0
 21 22  1  0  0  0
 22 23  2  0  0  0
 23 28  1  0  0  0
 23 24  1  0  0  0
 24 27  1  0  0  0
 24 26  1  0  0  0
 24 25  1  0  0  0
 28 29  2  0  0  0
 29 35  1  0  0  0
 29 30  1  0  0  0
 30 31  1  0  0  0
 31 34  2  0  0  0
 31 33  2  0  0  0
 31 32  1  0  0  0
 35 36  2  0  0  0
 36 22  1  0  0  0
  4 37  1  0  0  0
  5 38  1  0  0  0
  8 39  1  0  0  0
  8 40  1  0  0  0
 10 41  1  0  0  0
 13 42  1  0  0  0
 14 43  1  0  0  0
 15 44  1  0  0  0
 16 45  1  0  0  0
 17 46  1  0  0  0
 19 47  1  0  0  0
 20 48  1  0  0  0
 21 49  1  0  0  0
 21 50  1  0  0  0
 28 51  1  0  0  0
 30 52  1  0  0  0
 32 53  1  0  0  0
 32 54  1  0  0  0
 32 55  1  0  0  0
 35 56  1  0  0  0
 36 57  1  0  0  0
M  END
> <pIC50>
8.301

$$$$
D4_20
  DSViewer          3D                             0

 61 65  0  0  0  0  0  0  0  0999 V2000
   -0.6665   -3.5742   -0.3797 O   0  0
   -0.6819   -2.3440   -0.4175 C   0  0
   -1.8923   -1.5473   -0.4178 C   0  0
   -2.9226   -2.0385    0.3608 C   0  0
   -4.0560   -1.2813    0.6094 C   0  0
   -4.1570   -0.0191    0.0725 C   0  0
   -5.1408    0.8937    0.2163 N   0  0
   -6.3305    0.7564    1.0109 C   0  0
   -7.4361    0.1319    0.2831 C   0  0
   -8.5618   -0.2818    0.9750 C   0  0
   -9.6277   -0.8877    0.3565 C   0  0
  -10.7333   -1.2835    0.9868 F   0  0
   -9.5313   -1.0734   -1.0045 C   0  0
   -8.4387   -0.6791   -1.7205 C   0  0
   -7.3807   -0.0723   -1.0711 C   0  0
   -4.7359    1.9865   -0.4967 C   0  0
   -3.5090    1.7444   -1.0696 C   0  0
   -3.1500    0.4683   -0.7009 C   0  0
   -2.0024   -0.2998   -0.9543 C   0  0
    0.5497   -1.5558   -0.4340 N   0  0
    1.8427   -2.1567   -0.2687 C   0  0
    2.8870   -1.1177   -0.1509 C   0  0
    2.8501   -0.2678    0.9406 C   0  0
    1.6214   -0.0698    1.7518 C   0  0
    0.8143    0.9481    1.3015 F   0  0
    2.1353    0.5092    2.9735 F   0  0
    1.0146   -1.1859    2.1964 F   0  0
    3.9437    0.5237    1.2030 C   0  0
    5.1015    0.4975    0.3901 C   0  0
    6.1742    1.3228    0.7682 N   0  0
    7.7525    0.8759    1.1652 S   0  0
    8.6619    0.0804   -0.1150 C   0  0
    9.4823    0.9232   -1.0136 C   0  0
   10.1564    0.0346   -0.0024 C   0  0
    7.7987    0.0053    2.4258 O   0  0
    8.5394    2.1513    1.5228 O   0  0
    5.1309   -0.3312   -0.6770 C   0  0
    4.0259   -1.1441   -0.9586 C   0  0
   -2.9106   -3.0261    0.7972 H   0  0
   -4.8374   -1.6886    1.2246 H   0  0
   -6.6157    1.7707    1.3716 H   0  0
   -6.1064    0.1349    1.9273 H   0  0
   -8.5845   -0.1006    2.0355 H   0  0
  -10.3336   -1.5512   -1.5426 H   0  0
   -8.3427   -0.8041   -2.7810 H   0  0
   -6.5187    0.2441   -1.6463 H   0  0
   -5.3320    2.8897   -0.5640 H   0  0
   -2.9183    2.4042   -1.6981 H   0  0
   -1.2436    0.1326   -1.5773 H   0  0
    0.3942   -0.5454   -0.6101 H   0  0
    2.0318   -2.6326   -1.3077 H   0  0
    1.9114   -3.0038    0.3962 H   0  0
    3.8992    1.2043    2.0374 H   0  0
    5.9236    2.3676    0.7962 H   0  0
    8.2385   -0.8570   -0.5363 H   0  0
    9.6743    0.6578   -2.0885 H   0  0
    9.4969    2.0253   -0.8712 H   0  0
   10.6858   -0.8809   -0.2972 H   0  0
   10.6840    0.5771    0.8089 H   0  0
    6.0254   -0.3878   -1.3145 H   0  0
    4.0858   -1.7973   -1.8405 H   0  0
  1  2  2  0  0  0
  2 20  1  0  0  0
  2  3  1  0  0  0
  3  4  2  0  0  0
  4  5  1  0  0  0
  5  6  2  0  0  0
  6 18  1  0  0  0
  6  7  1  0  0  0
  7 16  1  0  0  0
  7  8  1  0  0  0
  8  9  1  0  0  0
  9 10  2  0  0  0
 10 11  1  0  0  0
 11 13  2  0  0  0
 11 12  1  0  0  0
 13 14  1  0  0  0
 14 15  2  0  0  0
 15  9  1  0  0  0
 16 17  2  0  0  0
 18 19  2  0  0  0
 18 17  1  0  0  0
 19  3  1  0  0  0
 20 21  1  0  0  0
 21 22  1  0  0  0
 22 23  2  0  0  0
 23 28  1  0  0  0
 23 24  1  0  0  0
 24 27  1  0  0  0
 24 26  1  0  0  0
 24 25  1  0  0  0
 28 29  2  0  0  0
 29 37  1  0  0  0
 29 30  1  0  0  0
 30 31  1  0  0  0
 31 36  2  0  0  0
 31 35  2  0  0  0
 31 32  1  0  0  0
 32 33  1  0  0  0
 33 34  1  0  0  0
 34 32  1  0  0  0
 37 38  2  0  0  0
 38 22  1  0  0  0
  4 39  1  0  0  0
  5 40  1  0  0  0
  8 41  1  0  0  0
  8 42  1  0  0  0
 10 43  1  0  0  0
 13 44  1  0  0  0
 14 45  1  0  0  0
 15 46  1  0  0  0
 16 47  1  0  0  0
 17 48  1  0  0  0
 19 49  1  0  0  0
 20 50  1  0  0  0
 21 51  1  0  0  0
 21 52  1  0  0  0
 28 53  1  0  0  0
 30 54  1  0  0  0
 32 55  1  0  0  0
 33 56  1  0  0  0
 33 57  1  0  0  0
 34 58  1  0  0  0
 34 59  1  0  0  0
 37 60  1  0  0  0
 38 61  1  0  0  0
M  END
> <pIC50>
8.097

$$$$
D4_09
  DSViewer          3D                             0

 60 63  0  0  0  0  0  0  0  0999 V2000
    0.0080   -1.5124    1.5603 O   0  0
   -0.3710   -1.4114    0.3951 C   0  0
   -1.7771   -1.0741    0.1169 C   0  0
   -2.1535   -0.5599   -1.1351 C   0  0
   -3.4612   -0.2622   -1.3827 C   0  0
   -4.4323   -0.4516   -0.4415 C   0  0
   -5.7543   -0.2885   -0.3828 N   0  0
   -6.6388    0.0561   -1.5081 C   0  0
   -7.2731   -1.2596   -1.9158 C   0  0
   -8.5176   -1.5657   -1.4082 C   0  0
   -9.1192   -2.7994   -1.7092 C   0  0
  -10.3231   -3.1276   -1.2319 F   0  0
   -8.4347   -3.6915   -2.5187 C   0  0
   -7.2179   -3.4031   -3.0228 C   0  0
   -6.6333   -2.1681   -2.7119 C   0  0
   -6.2702   -0.6270    0.8036 C   0  0
   -5.2158   -1.0689    1.6153 C   0  0
   -4.1042   -0.9536    0.8310 C   0  0
   -2.7382   -1.2540    1.0499 C   0  0
    0.5180   -1.6000   -0.6313 N   0  0
    1.8750   -1.8622   -0.8716 C   0  0
    2.8801   -1.0068   -0.2344 C   0  0
    3.7868   -0.4308   -1.1745 C   0  0
    3.4973   -0.3776   -2.5905 C   0  0
    4.5922    0.3017   -3.1938 F   0  0
    2.4806    0.6039   -2.7392 F   0  0
    3.2574   -1.4297   -3.3314 F   0  0
    4.8727    0.2295   -0.6590 C   0  0
    5.1741    0.3951    0.6646 C   0  0
    6.3407    1.1548    1.0214 N   0  0
    7.6966    1.2028   -0.0179 S   0  0
    8.4386   -0.3711   -0.2760 C   0  0
    7.4904   -1.4446   -0.7730 C   0  0
    7.4009    1.8966   -1.3407 O   0  0
    8.7347    2.1218    0.6224 O   0  0
    4.3166   -0.1597    1.5735 C   0  0
    3.1985   -0.8429    1.0582 C   0  0
   -1.4221   -0.3720   -1.8949 H   0  0
   -3.7635    0.1496   -2.3451 H   0  0
   -6.1322    0.4579   -2.3679 H   0  0
   -7.4029    0.7344   -1.1672 H   0  0
   -9.0534   -0.8992   -0.7752 H   0  0
   -8.9416   -4.6517   -2.7371 H   0  0
   -6.7280   -4.1105   -3.6488 H   0  0
   -5.6553   -1.9856   -3.1419 H   0  0
   -7.2948   -0.5848    1.1019 H   0  0
   -5.2939   -1.4121    2.6106 H   0  0
   -2.5290   -1.6459    2.0531 H   0  0
   -0.0785   -1.6188   -1.6293 H   0  0
    2.1447   -2.3127   -1.8229 H   0  0
    2.0497   -2.8633   -0.2120 H   0  0
    5.6064    0.6950   -1.3585 H   0  0
    6.3410    1.6544    1.9297 H   0  0
    9.1791   -0.2597   -1.1465 H   0  0
    9.0204   -0.7191    0.5740 H   0  0
    7.0671   -1.2350   -1.7628 H   0  0
    8.1197   -2.3757   -0.8907 H   0  0
    6.7390   -1.7478   -0.0006 H   0  0
    4.4616   -0.1151    2.6337 H   0  0
    2.5566   -1.2996    1.8029 H   0  0
  1  2  2  0  0  0
  2 20  1  0  0  0
  2  3  1  0  0  0
  3  4  2  0  0  0
  4  5  1  0  0  0
  5  6  2  0  0  0
  6 18  1  0  0  0
  6  7  1  0  0  0
  7 16  1  0  0  0
  7  8  1  0  0  0
  8  9  1  0  0  0
  9 10  2  0  0  0
 10 11  1  0  0  0
 11 13  2  0  0  0
 11 12  1  0  0  0
 13 14  1  0  0  0
 14 15  2  0  0  0
 15  9  1  0  0  0
 16 17  2  0  0  0
 18 19  2  0  0  0
 18 17  1  0  0  0
 19  3  1  0  0  0
 20 21  1  0  0  0
 21 22  1  0  0  0
 22 23  2  0  0  0
 23 28  1  0  0  0
 23 24  1  0  0  0
 24 27  1  0  0  0
 24 26  1  0  0  0
 24 25  1  0  0  0
 28 29  2  0  0  0
 29 36  1  0  0  0
 29 30  1  0  0  0
 30 31  1  0  0  0
 31 35  2  0  0  0
 31 34  2  0  0  0
 31 32  1  0  0  0
 32 33  1  0  0  0
 36 37  2  0  0  0
 37 22  1  0  0  0
  4 38  1  0  0  0
  5 39  1  0  0  0
  8 40  1  0  0  0
  8 41  1  0  0  0
 10 42  1  0  0  0
 13 43  1  0  0  0
 14 44  1  0  0  0
 15 45  1  0  0  0
 16 46  1  0  0  0
 17 47  1  0  0  0
 19 48  1  0  0  0
 20 49  1  0  0  0
 21 50  1  0  0  0
 21 51  1  0  0  0
 28 52  1  0  0  0
 30 53  1  0  0  0
 32 54  1  0  0  0
 32 55  1  0  0  0
 33 56  1  0  0  0
 33 57  1  0  0  0
 33 58  1  0  0  0
 36 59  1  0  0  0
 37 60  1  0  0  0
M  END
> <pIC50>
8.523

$$$$
D4_45
  DSViewer          3D                             0

 53 56  0  0  0  0  0  0  0  0999 V2000
    0.4278   -1.5639    1.4826 O   0  0
   -0.1182   -1.4628    0.3573 C   0  0
   -1.4950   -0.9581    0.3482 C   0  0
   -2.5930   -1.7890    0.4185 C   0  0
   -3.8705   -1.2837    0.4078 C   0  0
   -4.1037    0.0958    0.3250 C   0  0
   -5.2248    0.8302    0.2958 N   0  0
   -6.5471    0.2442    0.3628 C   0  0
   -7.0776    0.1114    1.7197 C   0  0
   -7.7782    1.2293    2.1980 C   0  0
   -8.3275    1.2281    3.4612 C   0  0
   -8.9973    2.3235    3.8922 F   0  0
   -8.1782    0.1073    4.2525 C   0  0
   -7.4889   -0.9848    3.7740 C   0  0
   -6.9312   -1.0043    2.5125 C   0  0
   -4.9011    2.1243    0.2075 C   0  0
   -3.5342    2.2138    0.1802 C   0  0
   -3.0231    0.9397    0.2540 C   0  0
   -1.7527    0.3936    0.2674 C   0  0
    0.5874   -1.8246   -0.8056 N   0  0
    1.9263   -2.3106   -0.8248 C   0  0
    2.9536   -1.3575   -0.3574 C   0  0
    4.2822   -1.7122   -0.2925 C   0  0
    4.6665   -3.0892   -0.6884 C   0  0
    6.0321   -3.2586   -0.5620 F   0  0
    4.0949   -4.0255    0.1854 F   0  0
    4.3471   -3.3757   -1.9930 F   0  0
    5.2669   -0.8379    0.1249 C   0  0
    4.9488    0.4492    0.4996 C   0  0
    5.9473    1.3210    0.9183 O   0  0
    7.2996    0.9064    0.9679 C   0  0
    3.6242    0.8243    0.4414 C   0  0
    2.6504   -0.0728    0.0179 C   0  0
   -2.4433   -2.8715    0.4843 H   0  0
   -4.6962   -1.9752    0.4616 H   0  0
   -6.5070   -0.7389   -0.1434 H   0  0
   -7.1960    0.8832   -0.2787 H   0  0
   -7.9089    2.1197    1.5970 H   0  0
   -8.6151    0.1193    5.2440 H   0  0
   -7.3616   -1.8725    4.3795 H   0  0
   -6.3907   -1.8533    2.1265 H   0  0
   -5.6285    2.9556    0.1655 H   0  0
   -2.9455    3.1094    0.1136 H   0  0
   -0.9272    1.0979    0.2095 H   0  0
    0.0536   -1.7154   -1.7203 H   0  0
    1.9675   -3.2389   -0.1803 H   0  0
    2.1762   -2.7076   -1.8525 H   0  0
    6.3212   -1.1465    0.1677 H   0  0
    7.7114    0.6834   -0.0404 H   0  0
    7.3878   -0.0679    1.5304 H   0  0
    7.9363    1.6699    1.4493 H   0  0
    3.3972    1.8376    0.7395 H   0  0
    1.6451    0.3042   -0.0082 H   0  0
  1  2  2  0  0  0
  2 20  1  0  0  0
  2  3  1  0  0  0
  3  4  2  0  0  0
  4  5  1  0  0  0
  5  6  2  0  0  0
  6 18  1  0  0  0
  6  7  1  0  0  0
  7 16  1  0  0  0
  7  8  1  0  0  0
  8  9  1  0  0  0
  9 10  2  0  0  0
 10 11  1  0  0  0
 11 13  2  0  0  0
 11 12  1  0  0  0
 13 14  1  0  0  0
 14 15  2  0  0  0
 15  9  1  0  0  0
 16 17  2  0  0  0
 18 19  2  0  0  0
 18 17  1  0  0  0
 19  3  1  0  0  0
 20 21  1  0  0  0
 21 22  1  0  0  0
 22 23  2  0  0  0
 23 28  1  0  0  0
 23 24  1  0  0  0
 24 27  1  0  0  0
 24 26  1  0  0  0
 24 25  1  0  0  0
 28 29  2  0  0  0
 29 32  1  0  0  0
 29 30  1  0  0  0
 30 31  1  0  0  0
 32 33  2  0  0  0
 33 22  1  0  0  0
  4 34  1  0  0  0
  5 35  1  0  0  0
  8 36  1  0  0  0
  8 37  1  0  0  0
 10 38  1  0  0  0
 13 39  1  0  0  0
 14 40  1  0  0  0
 15 41  1  0  0  0
 16 42  1  0  0  0
 17 43  1  0  0  0
 19 44  1  0  0  0
 20 45  1  0  0  0
 21 46  1  0  0  0
 21 47  1  0  0  0
 28 48  1  0  0  0
 31 49  1  0  0  0
 31 50  1  0  0  0
 31 51  1  0  0  0
 32 52  1  0  0  0
 33 53  1  0  0  0
M  END
> <pIC50>
6.509

$$$$
D4_47
  DSViewer          3D                             0

 49 52  0  0  0  0  0  0  0  0999 V2000
   -0.2926   -2.7869    0.9408 O   0  0
   -0.4922   -1.7032    0.3405 C   0  0
   -1.8215   -1.1253    0.2254 C   0  0
   -2.9144   -1.7820    0.7928 C   0  0
   -4.1942   -1.2801    0.7139 C   0  0
   -4.4688   -0.0934    0.0657 C   0  0
   -5.5978    0.6192   -0.1596 N   0  0
   -6.9254    0.2818    0.2502 C   0  0
   -7.5916   -0.5000   -0.8174 C   0  0
   -8.2675    0.1204   -1.8468 C   0  0
   -8.8985   -0.6108   -2.8509 C   0  0
   -9.5529    0.0157   -3.8468 F   0  0
   -8.8280   -1.9888   -2.7866 C   0  0
   -8.1644   -2.6430   -1.7772 C   0  0
   -7.5516   -1.8648   -0.7998 C   0  0
   -5.2984    1.7415   -0.8640 C   0  0
   -3.9398    1.7091   -1.0742 C   0  0
   -3.4066    0.5756   -0.5034 C   0  0
   -2.1116    0.0548   -0.4160 C   0  0
    0.6772   -1.0737   -0.2238 N   0  0
    1.9743   -1.6906   -0.0806 C   0  0
    3.0739   -0.9651   -0.6896 C   0  0
    4.3496   -1.5474   -0.5576 C   0  0
    4.5503   -2.8180    0.1506 C   0  0
    3.9225   -3.8558   -0.5190 F   0  0
    4.1824   -2.7827    1.4616 F   0  0
    5.9223   -3.1066    0.1139 F   0  0
    5.3997   -0.8704   -1.1267 C   0  0
    5.2642    0.3163   -1.8001 C   0  0
    4.0158    0.8745   -1.9226 C   0  0
    2.9213    0.2243   -1.3619 C   0  0
   -2.7033   -2.7115    1.3010 H   0  0
   -5.0430   -1.7957    1.1619 H   0  0
   -6.9283   -0.2647    1.2170 H   0  0
   -7.4864    1.2352    0.4492 H   0  0
   -8.3120    1.1816   -1.8812 H   0  0
   -9.3308   -2.5359   -3.5856 H   0  0
   -8.1045   -3.7130   -1.7192 H   0  0
   -7.0283   -2.3871    0.0006 H   0  0
   -6.0120    2.4924   -1.1813 H   0  0
   -3.3605    2.4454   -1.6010 H   0  0
   -1.3180    0.6122   -0.8749 H   0  0
    0.4981   -0.1897   -0.7106 H   0  0
    2.1761   -1.7083    1.0354 H   0  0
    1.9396   -2.7716   -0.3440 H   0  0
    6.4043   -1.2740   -1.0548 H   0  0
    6.1241    0.8381   -2.2470 H   0  0
    3.9020    1.8258   -2.4616 H   0  0
    1.9615    0.7291   -1.5006 H   0  0
  1  2  2  0  0  0
  2 20  1  0  0  0
  2  3  1  0  0  0
  3  4  2  0  0  0
  4  5  1  0  0  0
  5  6  2  0  0  0
  6 18  1  0  0  0
  6  7  1  0  0  0
  7 16  1  0  0  0
  7  8  1  0  0  0
  8  9  1  0  0  0
  9 10  2  0  0  0
 10 11  1  0  0  0
 11 13  2  0  0  0
 11 12  1  0  0  0
 13 14  1  0  0  0
 14 15  2  0  0  0
 15  9  1  0  0  0
 16 17  2  0  0  0
 18 19  2  0  0  0
 18 17  1  0  0  0
 19  3  1  0  0  0
 20 21  1  0  0  0
 21 22  1  0  0  0
 22 23  2  0  0  0
 23 28  1  0  0  0
 23 24  1  0  0  0
 24 27  1  0  0  0
 24 26  1  0  0  0
 24 25  1  0  0  0
 28 29  2  0  0  0
 29 30  1  0  0  0
 30 31  2  0  0  0
 31 22  1  0  0  0
  4 32  1  0  0  0
  5 33  1  0  0  0
  8 34  1  0  0  0
  8 35  1  0  0  0
 10 36  1  0  0  0
 13 37  1  0  0  0
 14 38  1  0  0  0
 15 39  1  0  0  0
 16 40  1  0  0  0
 17 41  1  0  0  0
 19 42  1  0  0  0
 20 43  1  0  0  0
 21 44  1  0  0  0
 21 45  1  0  0  0
 28 46  1  0  0  0
 29 47  1  0  0  0
 30 48  1  0  0  0
 31 49  1  0  0  0
M  END
> <pIC50>
6.493

$$$$
D4_18
  DSViewer          3D                             0

 54 57  0  0  0  0  0  0  0  0999 V2000
   -0.4675   -2.1091    1.5430 O   0  0
   -0.6321   -1.5220    0.4131 C   0  0
   -1.9473   -1.0924    0.0185 C   0  0
   -2.8117   -1.9571   -0.5850 C   0  0
   -4.0861   -1.5945   -0.9302 C   0  0
   -4.4482   -0.2977   -0.6410 C   0  0
   -5.6299    0.3515   -0.8775 N   0  0
   -6.7749   -0.2943   -1.5196 C   0  0
   -7.7322   -0.7545   -0.4561 C   0  0
   -9.0341   -0.2807   -0.5416 C   0  0
   -9.9247   -0.6600    0.4156 C   0  0
  -11.2400   -0.2155    0.3231 F   0  0
   -9.5202   -1.4884    1.4377 C   0  0
   -8.2267   -1.9603    1.5258 C   0  0
   -7.3066   -1.5742    0.5300 C   0  0
   -5.5569    1.6118   -0.4486 C   0  0
   -4.2726    1.7897    0.0916 C   0  0
   -3.6192    0.6106   -0.0414 C   0  0
   -2.3335    0.1994    0.2949 C   0  0
    0.5408   -1.3244   -0.3987 N   0  0
    1.7922   -1.8070    0.2009 C   0  0
    2.9360   -0.8969    0.1483 C   0  0
    3.3173   -0.3404    1.4115 C   0  0
    2.1724   -0.4308    2.7077 Cl  0  0
    4.5268    0.2587    1.4925 C   0  0
    5.4386    0.3643    0.4175 C   0  0
    6.6823    0.9674    0.6737 N   0  0
    8.0889    0.1018    0.1039 S   0  0
    8.0858   -1.4659    0.8933 C   0  0
    9.3317    0.8822    0.5112 O   0  0
    8.0008   -0.0628   -1.3795 O   0  0
    5.0514   -0.1686   -0.8172 C   0  0
    3.7960   -0.7872   -0.9007 C   0  0
   -2.4373   -2.9650   -0.7746 H   0  0
   -4.7833   -2.2428   -1.4097 H   0  0
   -7.2558    0.4030   -2.2304 H   0  0
   -6.3901   -1.1744   -2.0653 H   0  0
   -9.3076    0.4184   -1.3579 H   0  0
  -10.2267   -1.7792    2.1863 H   0  0
   -7.8865   -2.6156    2.3384 H   0  0
   -6.3174   -1.9616    0.6603 H   0  0
   -6.3677    2.3668   -0.4988 H   0  0
   -3.9403    2.7251    0.5340 H   0  0
   -1.6649    0.9101    0.7491 H   0  0
    0.5099   -0.9058   -1.3008 H   0  0
    1.6855   -2.3738    1.1151 H   0  0
    2.1381   -2.6664   -0.5844 H   0  0
    4.7739    0.6894    2.4821 H   0  0
    6.7936    1.8461    1.1795 H   0  0
    9.0999   -1.7158    1.2223 H   0  0
    7.3372   -1.4866    1.7308 H   0  0
    7.7259   -2.2551    0.1867 H   0  0
    5.7361   -0.0838   -1.6348 H   0  0
    3.5717   -1.1947   -1.8915 H   0  0
  1  2  2  0  0  0
  2 20  1  0  0  0
  2  3  1  0  0  0
  3  4  2  0  0  0
  4  5  1  0  0  0
  5  6  2  0  0  0
  6 18  1  0  0  0
  6  7  1  0  0  0
  7 16  1  0  0  0
  7  8  1  0  0  0
  8  9  1  0  0  0
  9 10  2  0  0  0
 10 11  1  0  0  0
 11 13  2  0  0  0
 11 12  1  0  0  0
 13 14  1  0  0  0
 14 15  2  0  0  0
 15  9  1  0  0  0
 16 17  2  0  0  0
 18 19  2  0  0  0
 18 17  1  0  0  0
 19  3  1  0  0  0
 20 21  1  0  0  0
 21 22  1  0  0  0
 22 23  2  0  0  0
 23 25  1  0  0  0
 23 24  1  0  0  0
 25 26  2  0  0  0
 26 32  1  0  0  0
 26 27  1  0  0  0
 27 28  1  0  0  0
 28 31  2  0  0  0
 28 30  2  0  0  0
 28 29  1  0  0  0
 32 33  2  0  0  0
 33 22  1  0  0  0
  4 34  1  0  0  0
  5 35  1  0  0  0
  8 36  1  0  0  0
  8 37  1  0  0  0
 10 38  1  0  0  0
 13 39  1  0  0  0
 14 40  1  0  0  0
 15 41  1  0  0  0
 16 42  1  0  0  0
 17 43  1  0  0  0
 19 44  1  0  0  0
 20 45  1  0  0  0
 21 46  1  0  0  0
 21 47  1  0  0  0
 25 48  1  0  0  0
 27 49  1  0  0  0
 29 50  1  0  0  0
 29 51  1  0  0  0
 29 52  1  0  0  0
 32 53  1  0  0  0
 33 54  1  0  0  0
M  END
> <pIC50>
8.222

$$$$
D4_21
  DSViewer          3D                             0

 54 57  0  0  0  0  0  0  0  0999 V2000
    0.5210    0.2035   -1.5965 O   0  0
   -0.1283   -0.6602   -0.9210 C   0  0
   -1.5110   -0.3825   -0.5643 C   0  0
   -2.2870   -1.2281    0.1830 C   0  0
   -3.6157   -0.9007    0.4918 C   0  0
   -4.1714    0.2788    0.0508 C   0  0
   -5.4028    0.8365    0.1978 N   0  0
   -6.5133    0.2440    0.9296 C   0  0
   -7.3618   -0.6074    0.0785 C   0  0
   -8.4348   -0.0200   -0.5747 C   0  0
   -9.2554   -0.7589   -1.3763 C   0  0
  -10.3035   -0.1548   -2.0066 F   0  0
   -9.0450   -2.1196   -1.5649 C   0  0
   -7.9829   -2.6956   -0.9170 C   0  0
   -7.1502   -1.9514   -0.1050 C   0  0
   -5.4200    2.0179   -0.4420 C   0  0
   -4.1926    2.2294   -1.0083 C   0  0
   -3.4067    1.1438   -0.7031 C   0  0
   -2.0919    0.7894   -0.9920 C   0  0
    0.5900   -1.8370   -0.5788 N   0  0
    1.9387   -2.1097   -0.9175 C   0  0
    2.9582   -1.2200   -0.3470 C   0  0
    4.2771   -1.4612   -0.6920 C   0  0
    4.5468   -2.4977   -1.5477 F   0  0
    5.3257   -0.7244   -0.2278 C   0  0
    5.1060    0.3264    0.6333 C   0  0
    6.1876    1.1217    1.1400 N   0  0
    7.4441    1.6879    0.1224 S   0  0
    6.7144    2.7442   -1.1089 C   0  0
    8.1466    0.5582   -0.5886 O   0  0
    8.4471    2.4190    0.9488 O   0  0
    3.8044    0.5885    0.9932 C   0  0
    2.7307   -0.1722    0.5132 C   0  0
   -1.8510   -2.1513    0.5281 H   0  0
   -4.1969   -1.5902    1.0824 H   0  0
   -7.1550    1.0354    1.3707 H   0  0
   -6.1454   -0.3771    1.7670 H   0  0
   -8.6180    1.0191   -0.4474 H   0  0
   -9.7244   -2.6358   -2.2042 H   0  0
   -7.8154   -3.7654   -1.0638 H   0  0
   -6.3326   -2.4331    0.3840 H   0  0
   -6.2664    2.6868   -0.4971 H   0  0
   -3.9212    3.0922   -1.5799 H   0  0
   -1.4941    1.4701   -1.5839 H   0  0
    0.0312   -2.5492   -0.0204 H   0  0
    2.1412   -2.1642   -2.0095 H   0  0
    2.1956   -3.1426   -0.5490 H   0  0
    6.3470   -0.9318   -0.5114 H   0  0
    6.1679    1.3373    2.1633 H   0  0
    7.3950    3.6093   -1.2621 H   0  0
    6.5249    2.1947   -2.0599 H   0  0
    5.7509    3.1541   -0.7810 H   0  0
    3.5941    1.4053    1.6672 H   0  0
    1.7214    0.0337    0.8061 H   0  0
  1  2  2  0  0  0
  2 20  1  0  0  0
  2  3  1  0  0  0
  3  4  2  0  0  0
  4  5  1  0  0  0
  5  6  2  0  0  0
  6 18  1  0  0  0
  6  7  1  0  0  0
  7 16  1  0  0  0
  7  8  1  0  0  0
  8  9  1  0  0  0
  9 10  2  0  0  0
 10 11  1  0  0  0
 11 13  2  0  0  0
 11 12  1  0  0  0
 13 14  1  0  0  0
 14 15  2  0  0  0
 15  9  1  0  0  0
 16 17  2  0  0  0
 18 19  2  0  0  0
 18 17  1  0  0  0
 19  3  1  0  0  0
 20 21  1  0  0  0
 21 22  1  0  0  0
 22 23  2  0  0  0
 23 25  1  0  0  0
 23 24  1  0  0  0
 25 26  2  0  0  0
 26 32  1  0  0  0
 26 27  1  0  0  0
 27 28  1  0  0  0
 28 31  2  0  0  0
 28 30  2  0  0  0
 28 29  1  0  0  0
 32 33  2  0  0  0
 33 22  1  0  0  0
  4 34  1  0  0  0
  5 35  1  0  0  0
  8 36  1  0  0  0
  8 37  1  0  0  0
 10 38  1  0  0  0
 13 39  1  0  0  0
 14 40  1  0  0  0
 15 41  1  0  0  0
 16 42  1  0  0  0
 17 43  1  0  0  0
 19 44  1  0  0  0
 20 45  1  0  0  0
 21 46  1  0  0  0
 21 47  1  0  0  0
 25 48  1  0  0  0
 27 49  1  0  0  0
 29 50  1  0  0  0
 29 51  1  0  0  0
 29 52  1  0  0  0
 32 53  1  0  0  0
 33 54  1  0  0  0
M  END
> <pIC50>
7.921

$$$$
D4_41
  DSViewer          3D                             0

 54 57  0  0  0  0  0  0  0  0999 V2000
   -0.6393   -3.2236   -0.4498 O   0  0
   -0.6457   -1.9821   -0.2037 C   0  0
   -1.8995   -1.2590   -0.0873 C   0  0
   -3.0776   -1.9608   -0.2903 C   0  0
   -4.2921   -1.3276   -0.1924 C   0  0
   -4.3762    0.0206    0.1098 C   0  0
   -5.4245    0.8293    0.2541 N   0  0
   -6.8326    0.5562    0.1375 C   0  0
   -7.3437    0.7562   -1.2391 C   0  0
   -7.8194    1.9795   -1.6476 C   0  0
   -8.3032    2.1736   -2.9458 C   0  0
   -8.7687    3.3951   -3.3252 F   0  0
   -8.3066    1.1329   -3.8306 C   0  0
   -7.8327   -0.1100   -3.4439 C   0  0
   -7.3565   -0.2793   -2.1478 C   0  0
   -4.9111    2.0558    0.5514 C   0  0
   -3.5339    1.9956    0.5891 C   0  0
   -3.1975    0.6927    0.3062 C   0  0
   -1.9617    0.0815    0.2140 C   0  0
    0.6222   -1.3715   -0.0554 N   0  0
    1.8455   -2.1762   -0.1887 C   0  0
    2.9917   -1.2544    0.0321 C   0  0
    4.1282   -1.4022   -0.7252 C   0  0
    5.2195   -0.5448   -0.5309 C   0  0
    5.2208    0.4575    0.3929 C   0  0
    6.2547    1.3743    0.6591 N   0  0
    7.8688    0.8538    0.8773 S   0  0
    8.4891    0.0745   -0.5802 C   0  0
    7.9411   -0.1862    1.9947 O   0  0
    8.7482    2.0008    1.3061 O   0  0
    4.0437    0.5805    1.1494 C   0  0
    2.9612   -0.2514    0.9738 C   0  0
   -3.0294   -3.0142   -0.5270 H   0  0
   -5.2349   -1.8575   -0.3472 H   0  0
   -7.4350    1.1900    0.8494 H   0  0
   -7.0554   -0.5019    0.4502 H   0  0
   -7.8182    2.7967   -0.9573 H   0  0
   -8.6761    1.2546   -4.8444 H   0  0
   -7.8484   -0.9140   -4.1670 H   0  0
   -6.9913   -1.2504   -1.8599 H   0  0
   -5.4656    2.9627    0.7364 H   0  0
   -2.8317    2.7960    0.7968 H   0  0
   -1.0595    0.6481    0.3763 H   0  0
    0.6644   -0.3564    0.1450 H   0  0
    1.8557   -2.6063   -1.1984 H   0  0
    1.8492   -2.9948    0.5418 H   0  0
    4.1984   -2.1803   -1.4809 H   0  0
    6.1076   -0.6628   -1.1356 H   0  0
    6.0486    2.4278    0.7310 H   0  0
    9.6143    0.2699   -0.5781 H   0  0
    8.0821    0.5339   -1.4927 H   0  0
    8.3455   -1.0112   -0.5665 H   0  0
    4.0095    1.3739    1.8996 H   0  0
    2.0638   -0.1148    1.5926 H   0  0
  1  2  2  0  0  0
  2 20  1  0  0  0
  2  3  1  0  0  0
  3  4  2  0  0  0
  4  5  1  0  0  0
  5  6  2  0  0  0
  6 18  1  0  0  0
  6  7  1  0  0  0
  7 16  1  0  0  0
  7  8  1  0  0  0
  8  9  1  0  0  0
  9 10  2  0  0  0
 10 11  1  0  0  0
 11 13  2  0  0  0
 11 12  1  0  0  0
 13 14  1  0  0  0
 14 15  2  0  0  0
 15  9  1  0  0  0
 16 17  2  0  0  0
 18 19  2  0  0  0
 18 17  1  0  0  0
 19  3  1  0  0  0
 20 21  1  0  0  0
 21 22  1  0  0  0
 22 23  2  0  0  0
 23 24  1  0  0  0
 24 25  2  0  0  0
 25 31  1  0  0  0
 25 26  1  0  0  0
 26 27  1  0  0  0
 27 30  2  0  0  0
 27 29  2  0  0  0
 27 28  1  0  0  0
 31 32  2  0  0  0
 32 22  1  0  0  0
  4 33  1  0  0  0
  5 34  1  0  0  0
  8 35  1  0  0  0
  8 36  1  0  0  0
 10 37  1  0  0  0
 13 38  1  0  0  0
 14 39  1  0  0  0
 15 40  1  0  0  0
 16 41  1  0  0  0
 17 42  1  0  0  0
 19 43  1  0  0  0
 20 44  1  0  0  0
 21 45  1  0  0  0
 21 46  1  0  0  0
 23 47  1  0  0  0
 24 48  1  0  0  0
 26 49  1  0  0  0
 28 50  1  0  0  0
 28 51  1  0  0  0
 28 52  1  0  0  0
 31 53  1  0  0  0
 32 54  1  0  0  0
M  END
> <pIC50>
6.804

$$$$
D4_31
  DSViewer          3D                             0

 52 55  0  0  0  0  0  0  0  0999 V2000
    0.5525   -0.2815    1.4951 O   0  0
   -0.1144   -0.7822    0.6135 C   0  0
   -1.6151   -0.5829    0.4971 C   0  0
   -1.9784    0.6253   -0.1000 C   0  0
   -3.3008    0.8161   -0.4497 C   0  0
   -4.2295   -0.1711   -0.2096 C   0  0
   -5.5544   -0.2735   -0.5240 N   0  0
   -6.2946    0.7627   -1.2074 C   0  0
   -7.0636    1.6654   -0.3478 C   0  0
   -8.4575    1.6869   -0.4996 C   0  0
   -9.2403    2.5018    0.2794 C   0  0
  -10.6020    2.5210    0.1059 F   0  0
   -8.6631    3.3301    1.2478 C   0  0
   -7.2926    3.3079    1.3951 C   0  0
   -6.5121    2.4828    0.5973 C   0  0
   -5.9674   -1.4757   -0.1265 C   0  0
   -4.9266   -2.1340    0.4333 N   0  0
   -3.8340   -1.3428    0.3855 C   0  0
   -2.5053   -1.5319    0.7398 C   0  0
    0.4431   -1.5803   -0.3983 N   0  0
    1.7377   -1.9730   -0.7555 C   0  0
    2.8596   -1.1456   -0.3138 C   0  0
    3.7357   -0.5464   -1.1822 C   0  0
    3.4267   -0.5395   -2.6403 C   0  0
    3.5143   -1.7897   -3.1526 F   0  0
    2.2166    0.1151   -2.8809 F   0  0
    4.3981    0.2023   -3.3304 F   0  0
    4.8795    0.1075   -0.7639 C   0  0
    5.1954    0.1899    0.5592 C   0  0
    6.3257    0.8380    1.0039 O   0  0
    7.2437    1.4974    0.2191 C   0  0
    4.3337   -0.4061    1.4910 C   0  0
    3.2126   -1.0442    1.0254 C   0  0
   -1.2605    1.3816   -0.2729 H   0  0
   -3.6767    1.7413   -0.9196 H   0  0
   -7.0087    0.2739   -1.9346 H   0  0
   -5.5999    1.3508   -1.8928 H   0  0
   -8.9116    1.0372   -1.2569 H   0  0
   -9.2708    3.9694    1.8450 H   0  0
   -6.7948    3.9261    2.1150 H   0  0
   -5.4463    2.4724    0.7277 H   0  0
   -6.9670   -1.9241   -0.1897 H   0  0
   -2.1860   -2.4502    1.2170 H   0  0
   -0.3297   -2.0156   -1.0606 H   0  0
    1.9409   -3.0312   -0.3592 H   0  0
    1.8414   -2.1269   -1.8608 H   0  0
    5.5238    0.5653   -1.5079 H   0  0
    7.1455    2.6367    0.3388 H   0  0
    8.3061    1.2802    0.5410 H   0  0
    7.0932    1.3276   -0.8329 H   0  0
    4.6065   -0.3210    2.5158 H   0  0
    2.6062   -1.5496    1.7910 H   0  0
  1  2  2  0  0  0
  2 20  1  0  0  0
  2  3  1  0  0  0
  3  4  2  0  0  0
  4  5  1  0  0  0
  5  6  2  0  0  0
  6 18  1  0  0  0
  6  7  1  0  0  0
  7 16  1  0  0  0
  7  8  1  0  0  0
  8  9  1  0  0  0
  9 10  2  0  0  0
 10 11  1  0  0  0
 11 13  2  0  0  0
 11 12  1  0  0  0
 13 14  1  0  0  0
 14 15  2  0  0  0
 15  9  1  0  0  0
 16 17  2  0  0  0
 18 19  2  0  0  0
 18 17  1  0  0  0
 19  3  1  0  0  0
 20 21  1  0  0  0
 21 22  1  0  0  0
 22 23  2  0  0  0
 23 28  1  0  0  0
 23 24  1  0  0  0
 24 27  1  0  0  0
 24 26  1  0  0  0
 24 25  1  0  0  0
 28 29  2  0  0  0
 29 32  1  0  0  0
 29 30  1  0  0  0
 30 31  1  0  0  0
 32 33  2  0  0  0
 33 22  1  0  0  0
  4 34  1  0  0  0
  5 35  1  0  0  0
  8 36  1  0  0  0
  8 37  1  0  0  0
 10 38  1  0  0  0
 13 39  1  0  0  0
 14 40  1  0  0  0
 15 41  1  0  0  0
 16 42  1  0  0  0
 19 43  1  0  0  0
 20 44  1  0  0  0
 21 45  1  0  0  0
 21 46  1  0  0  0
 28 47  1  0  0  0
 31 48  1  0  0  0
 31 49  1  0  0  0
 31 50  1  0  0  0
 32 51  1  0  0  0
 33 52  1  0  0  0
M  END
> <pIC50>
7.398

$$$$
D4_38
  DSViewer          3D                             0

 48 51  0  0  0  0  0  0  0  0999 V2000
   -0.3612   -2.7814    0.9379 O   0  0
   -0.5065   -1.6947    0.3333 C   0  0
   -1.8325   -1.1162    0.2198 C   0  0
   -2.9214   -1.7859    0.7882 C   0  0
   -4.1852   -1.2616    0.6956 C   0  0
   -4.4634   -0.0793    0.0585 C   0  0
   -5.6031    0.6036   -0.1465 N   0  0
   -6.9573    0.2543    0.2816 C   0  0
   -7.2858    0.7928    1.6053 C   0  0
   -7.0368    0.0716    2.7336 C   0  0
   -7.3617    0.6146    3.9753 C   0  0
   -7.1188   -0.0945    5.1149 F   0  0
   -7.9290    1.8671    4.0648 C   0  0
   -8.1789    2.5918    2.9255 C   0  0
   -7.8533    2.0445    1.7030 C   0  0
   -5.2412    1.7043   -0.8432 C   0  0
   -3.9170    1.7001   -1.0611 N   0  0
   -3.3955    0.5862   -0.5039 C   0  0
   -2.1042    0.0712   -0.4213 C   0  0
    0.6805   -1.0858   -0.2169 N   0  0
    1.9519   -1.7058   -0.0702 C   0  0
    3.0707   -0.9746   -0.6800 C   0  0
    4.3645   -1.5362   -0.5698 C   0  0
    4.5511   -2.8200    0.1420 C   0  0
    4.2044   -2.7787    1.4582 F   0  0
    3.9476   -3.8840   -0.5396 F   0  0
    5.9203   -3.1118    0.0871 F   0  0
    5.3969   -0.8422   -1.1431 C   0  0
    5.2357    0.3485   -1.8058 C   0  0
    3.9837    0.8937   -1.9135 C   0  0
    2.9174    0.2100   -1.3405 C   0  0
   -2.7216   -2.7273    1.2990 H   0  0
   -5.0364   -1.7878    1.1411 H   0  0
   -6.9517   -0.8722    0.3490 H   0  0
   -7.6472    0.5643   -0.5159 H   0  0
   -6.5945   -0.9170    2.7424 H   0  0
   -8.1936    2.3162    5.0283 H   0  0
   -8.6309    3.5875    3.0121 H   0  0
   -8.0704    2.6586    0.8190 H   0  0
   -5.9000    2.4979   -1.1923 H   0  0
   -1.3037    0.6378   -0.8821 H   0  0
    0.4907   -0.1889   -0.7043 H   0  0
    1.9470   -2.7871   -0.3465 H   0  0
    2.1853   -1.7302    1.0416 H   0  0
    6.3977   -1.2475   -1.0746 H   0  0
    6.0897    0.8704   -2.2498 H   0  0
    3.8349    1.8377   -2.4354 H   0  0
    1.9605    0.6936   -1.4616 H   0  0
  1  2  2  0  0  0
  2 20  1  0  0  0
  2  3  1  0  0  0
  3  4  2  0  0  0
  4  5  1  0  0  0
  5  6  2  0  0  0
  6 18  1  0  0  0
  6  7  1  0  0  0
  7 16  1  0  0  0
  7  8  1  0  0  0
  8  9  1  0  0  0
  9 10  2  0  0  0
 10 11  1  0  0  0
 11 13  2  0  0  0
 11 12  1  0  0  0
 13 14  1  0  0  0
 14 15  2  0  0  0
 15  9  1  0  0  0
 16 17  2  0  0  0
 18 19  2  0  0  0
 18 17  1  0  0  0
 19  3  1  0  0  0
 20 21  1  0  0  0
 21 22  1  0  0  0
 22 23  2  0  0  0
 23 28  1  0  0  0
 23 24  1  0  0  0
 24 27  1  0  0  0
 24 26  1  0  0  0
 24 25  1  0  0  0
 28 29  2  0  0  0
 29 30  1  0  0  0
 30 31  2  0  0  0
 31 22  1  0  0  0
  4 32  1  0  0  0
  5 33  1  0  0  0
  8 34  1  0  0  0
  8 35  1  0  0  0
 10 36  1  0  0  0
 13 37  1  0  0  0
 14 38  1  0  0  0
 15 39  1  0  0  0
 16 40  1  0  0  0
 19 41  1  0  0  0
 20 42  1  0  0  0
 21 43  1  0  0  0
 21 44  1  0  0  0
 28 45  1  0  0  0
 29 46  1  0  0  0
 30 47  1  0  0  0
 31 48  1  0  0  0
M  END
> <pIC50>
6.971

$$$$
D4_25
  DSViewer          3D                             0

 52 55  0  0  0  0  0  0  0  0999 V2000
   -0.6296   -3.3497    0.0286 O   0  0
   -0.6813   -2.1109    0.0384 C   0  0
   -1.9906   -1.4202    0.1427 C   0  0
   -3.1089   -1.9338    0.7084 C   0  0
   -4.3454   -1.2482    0.6299 C   0  0
   -4.3945   -0.0353   -0.0305 C   0  0
   -5.3860    0.8784   -0.2778 N   0  0
   -6.8118    0.6824   -0.0072 C   0  0
   -7.4910    0.3448   -1.2674 C   0  0
   -7.8488    1.4006   -2.1143 C   0  0
   -8.4898    1.1820   -3.3418 C   0  0
   -8.8556    2.1599   -4.1839 F   0  0
   -8.7555   -0.1221   -3.6985 C   0  0
   -8.4156   -1.1631   -2.8964 C   0  0
   -7.7807   -0.9151   -1.6768 C   0  0
   -4.8772    1.8891   -0.9557 N   0  0
   -3.5878    1.7300   -1.1925 C   0  0
   -3.2823    0.5260   -0.6122 C   0  0
   -2.0894   -0.1947   -0.5139 C   0  0
    0.5112   -1.3125   -0.0852 N   0  0
    1.8183   -1.7732   -0.3498 C   0  0
    2.9197   -0.8411    0.0100 C   0  0
    3.6396   -0.2931   -1.0408 C   0  0
    3.0801   -0.2645   -2.4032 C   0  0
    3.0235   -1.4138   -3.0780 F   0  0
    3.8981    0.6150   -3.1659 F   0  0
    1.8507    0.3889   -2.4291 F   0  0
    4.8344    0.3216   -0.8139 C   0  0
    5.3776    0.4180    0.4993 C   0  0
    6.5702    1.0235    0.6961 O   0  0
    7.3016    1.2111    1.8508 C   0  0
    4.6210   -0.1333    1.5019 C   0  0
    3.4039   -0.7607    1.3161 C   0  0
   -3.0610   -2.8902    1.2430 H   0  0
   -5.2203   -1.6660    1.0972 H   0  0
   -7.2393    1.5839    0.4491 H   0  0
   -6.9068   -0.1584    0.7296 H   0  0
   -7.6577    2.4476   -1.8559 H   0  0
   -9.2444   -0.3088   -4.6640 H   0  0
   -8.6135   -2.1964   -3.1543 H   0  0
   -7.5391   -1.7857   -1.0762 H   0  0
   -2.9090    2.3754   -1.7224 H   0  0
   -1.2247    0.2036   -0.9794 H   0  0
    0.3299   -0.2573    0.0620 H   0  0
    1.9645   -2.1867   -1.3554 H   0  0
    1.9865   -2.6694    0.3193 H   0  0
    5.4324    0.7794   -1.6123 H   0  0
    8.3891    1.4553    1.6142 H   0  0
    6.8609    1.8884    2.5835 H   0  0
    7.4237    0.1996    2.3688 H   0  0
    4.9863   -0.0748    2.5302 H   0  0
    2.8712   -1.1445    2.1524 H   0  0
  1  2  2  0  0  0
  2 20  1  0  0  0
  2  3  1  0  0  0
  3  4  2  0  0  0
  4  5  1  0  0  0
  5  6  2  0  0  0
  6 18  1  0  0  0
  6  7  1  0  0  0
  7 16  1  0  0  0
  7  8  1  0  0  0
  8  9  1  0  0  0
  9 10  2  0  0  0
 10 11  1  0  0  0
 11 13  2  0  0  0
 11 12  1  0  0  0
 13 14  1  0  0  0
 14 15  2  0  0  0
 15  9  1  0  0  0
 16 17  2  0  0  0
 18 19  2  0  0  0
 18 17  1  0  0  0
 19  3  1  0  0  0
 20 21  1  0  0  0
 21 22  1  0  0  0
 22 23  2  0  0  0
 23 28  1  0  0  0
 23 24  1  0  0  0
 24 27  1  0  0  0
 24 26  1  0  0  0
 24 25  1  0  0  0
 28 29  2  0  0  0
 29 32  1  0  0  0
 29 30  1  0  0  0
 30 31  1  0  0  0
 32 33  2  0  0  0
 33 22  1  0  0  0
  4 34  1  0  0  0
  5 35  1  0  0  0
  8 36  1  0  0  0
  8 37  1  0  0  0
 10 38  1  0  0  0
 13 39  1  0  0  0
 14 40  1  0  0  0
 15 41  1  0  0  0
 17 42  1  0  0  0
 19 43  1  0  0  0
 20 44  1  0  0  0
 21 45  1  0  0  0
 21 46  1  0  0  0
 28 47  1  0  0  0
 31 48  1  0  0  0
 31 49  1  0  0  0
 31 50  1  0  0  0
 32 51  1  0  0  0
 33 52  1  0  0  0
M  END
> <pIC50>
7.658

$$$$
D4_30
  DSViewer          3D                             0

 48 51  0  0  0  0  0  0  0  0999 V2000
   -0.4087   -2.9572    0.6833 O   0  0
   -0.5307   -1.8001    0.2067 C   0  0
   -1.8617   -1.2218    0.1532 C   0  0
   -2.9771   -1.9518    0.5513 C   0  0
   -4.2423   -1.4058    0.5028 C   0  0
   -4.4455   -0.1106    0.0558 C   0  0
   -5.5124    0.6846   -0.1088 N   0  0
   -6.8829    0.3071    0.2005 C   0  0
   -7.2612    0.6601    1.5828 C   0  0
   -7.1070   -0.2756    2.5718 C   0  0
   -7.4484    0.0178    3.8863 C   0  0
   -7.2933   -0.9113    4.8574 F   0  0
   -7.9516    1.2894    4.1700 C   0  0
   -8.0938    2.2067    3.1508 C   0  0
   -7.7562    1.9220    1.8405 C   0  0
   -5.1423    1.8804   -0.5897 N   0  0
   -3.8223    1.8786   -0.7447 C   0  0
   -3.3651    0.6439   -0.3473 C   0  0
   -2.1096    0.0537   -0.2816 C   0  0
    0.6470   -1.1401   -0.2467 N   0  0
    1.9448   -1.7599   -0.1707 C   0  0
    3.0560   -0.9630   -0.6741 C   0  0
    4.3382   -1.5265   -0.6348 C   0  0
    4.4886   -2.8961   -0.0868 C   0  0
    3.8621   -3.8452   -0.9003 F   0  0
    5.8442   -3.2326   -0.1207 F   0  0
    4.0979   -3.0176    1.2251 F   0  0
    5.4344   -0.8214   -1.0967 C   0  0
    5.3426    0.4489   -1.6130 C   0  0
    4.0947    1.0161   -1.6591 C   0  0
    2.9878    0.3092   -1.1948 C   0  0
   -2.8116   -2.9611    0.8989 H   0  0
   -5.1074   -1.9812    0.8110 H   0  0
   -7.0174   -0.7851    0.0579 H   0  0
   -7.5393    0.8706   -0.5249 H   0  0
   -6.7282   -1.2528    2.3835 H   0  0
   -8.2070    1.4921    5.1867 H   0  0
   -8.4929    3.1894    3.4262 H   0  0
   -7.8698    2.6446    1.0460 H   0  0
   -3.2042    2.6721   -1.1077 H   0  0
   -1.2991    0.6858   -0.6072 H   0  0
    0.4842   -0.1914   -0.6295 H   0  0
    2.1444   -1.9774    0.9243 H   0  0
    1.8587   -2.7788   -0.6393 H   0  0
    6.4219   -1.2796   -1.0564 H   0  0
    6.2202    0.9930   -1.9743 H   0  0
    4.0112    2.0145   -2.0632 H   0  0
    2.0218    0.7843   -1.2451 H   0  0
  1  2  2  0  0  0
  2 20  1  0  0  0
  2  3  1  0  0  0
  3  4  2  0  0  0
  4  5  1  0  0  0
  5  6  2  0  0  0
  6 18  1  0  0  0
  6  7  1  0  0  0
  7 16  1  0  0  0
  7  8  1  0  0  0
  8  9  1  0  0  0
  9 10  2  0  0  0
 10 11  1  0  0  0
 11 13  2  0  0  0
 11 12  1  0  0  0
 13 14  1  0  0  0
 14 15  2  0  0  0
 15  9  1  0  0  0
 16 17  2  0  0  0
 18 19  2  0  0  0
 18 17  1  0  0  0
 19  3  1  0  0  0
 20 21  1  0  0  0
 21 22  1  0  0  0
 22 23  2  0  0  0
 23 28  1  0  0  0
 23 24  1  0  0  0
 24 27  1  0  0  0
 24 26  1  0  0  0
 24 25  1  0  0  0
 28 29  2  0  0  0
 29 30  1  0  0  0
 30 31  2  0  0  0
 31 22  1  0  0  0
  4 32  1  0  0  0
  5 33  1  0  0  0
  8 34  1  0  0  0
  8 35  1  0  0  0
 10 36  1  0  0  0
 13 37  1  0  0  0
 14 38  1  0  0  0
 15 39  1  0  0  0
 17 40  1  0  0  0
 19 41  1  0  0  0
 20 42  1  0  0  0
 21 43  1  0  0  0
 21 44  1  0  0  0
 28 45  1  0  0  0
 29 46  1  0  0  0
 30 47  1  0  0  0
 31 48  1  0  0  0
M  END
> <pIC50>
7.444

$$$$
D4_43
  DSViewer          3D                             0

 49 52  0  0  0  0  0  0  0  0999 V2000
    0.1507   -1.8151    1.6327 O   0  0
   -0.3198   -1.5080    0.5341 C   0  0
   -1.7129   -1.0089    0.3237 C   0  0
   -2.7612   -1.7541    0.7721 C   0  0
   -4.0808   -1.3170    0.6455 C   0  0
   -4.3040   -0.0835    0.0467 C   0  0
   -5.4430    0.6819   -0.1749 N   0  0
   -6.7473    0.1950    0.1892 C   0  0
   -7.8745    0.2794   -0.7157 C   0  0
   -7.9076    0.3286   -2.0628 C   0  0
   -9.1305    0.4417   -2.7496 C   0  0
  -10.3304    0.5100   -2.0730 C   0  0
  -11.8642    0.5799   -2.9554 Cl  0  0
  -10.3151    0.4620   -0.6952 C   0  0
   -9.0985    0.3482   -0.0647 C   0  0
   -5.0835    1.8316   -0.7675 C   0  0
   -3.7713    1.8292   -0.9079 N   0  0
   -5.9499    2.7234   -1.1209 O   0  0
   -3.2518    0.6901   -0.4157 C   0  0
   -1.9389    0.2247   -0.2782 C   0  0
    0.4643   -1.6122   -0.6329 N   0  0
    1.7703   -1.9808   -0.9396 C   0  0
    2.9044   -1.4753   -0.2125 C   0  0
    3.8134   -0.6267   -0.8938 C   0  0
    3.3782    0.0768   -2.1048 C   0  0
    2.1505    0.7910   -1.7094 F   0  0
    4.1945    1.1211   -2.4574 F   0  0
    3.0438   -0.6460   -3.2034 F   0  0
    5.0160   -0.3921   -0.2953 C   0  0
    5.3607   -0.9280    0.9033 C   0  0
    4.4874   -1.7592    1.6041 C   0  0
    3.2426   -2.0269    1.0306 C   0  0
   -2.5205   -2.7404    1.2205 H   0  0
   -4.8721   -1.8966    1.0143 H   0  0
   -6.6251   -0.9608    0.4252 H   0  0
   -6.9801    0.5911    1.1977 H   0  0
   -6.9964    0.2943   -2.6666 H   0  0
   -9.1498    0.4827   -3.8221 H   0  0
  -11.2596    0.5163   -0.1176 H   0  0
   -9.1231    0.3170    1.0408 H   0  0
   -3.1929    2.5992   -1.3666 H   0  0
   -1.1375    0.8389   -0.6096 H   0  0
   -0.1490   -1.3443   -1.5237 H   0  0
    1.8576   -3.1841   -0.8036 H   0  0
    1.9701   -1.9786   -2.0368 H   0  0
    5.7169    0.2485   -0.8889 H   0  0
    6.3192   -0.7651    1.3583 H   0  0
    4.7594   -2.1738    2.5828 H   0  0
    2.6198   -2.6915    1.6051 H   0  0
  1  2  2  0  0  0
  2 21  1  0  0  0
  2  3  1  0  0  0
  3  4  2  0  0  0
  4  5  1  0  0  0
  5  6  2  0  0  0
  6 19  1  0  0  0
  6  7  1  0  0  0
  7 16  1  0  0  0
  7  8  1  0  0  0
  8  9  1  0  0  0
  9 10  2  0  0  0
 10 11  1  0  0  0
 11 12  2  0  0  0
 12 14  1  0  0  0
 12 13  1  0  0  0
 14 15  2  0  0  0
 15  9  1  0  0  0
 16 18  2  0  0  0
 16 17  1  0  0  0
 19 20  2  0  0  0
 19 17  1  0  0  0
 20  3  1  0  0  0
 21 22  1  0  0  0
 22 23  1  0  0  0
 23 24  2  0  0  0
 24 29  1  0  0  0
 24 25  1  0  0  0
 25 28  1  0  0  0
 25 27  1  0  0  0
 25 26  1  0  0  0
 29 30  2  0  0  0
 30 31  1  0  0  0
 31 32  2  0  0  0
 32 23  1  0  0  0
  4 33  1  0  0  0
  5 34  1  0  0  0
  8 35  1  0  0  0
  8 36  1  0  0  0
 10 37  1  0  0  0
 11 38  1  0  0  0
 14 39  1  0  0  0
 15 40  1  0  0  0
 17 41  1  0  0  0
 20 42  1  0  0  0
 21 43  1  0  0  0
 22 44  1  0  0  0
 22 45  1  0  0  0
 29 46  1  0  0  0
 30 47  1  0  0  0
 31 48  1  0  0  0
 32 49  1  0  0  0
M  END
> <pIC50>
6.706

$$$$
D4_37
  DSViewer          3D                             0

 49 52  0  0  0  0  0  0  0  0999 V2000
    0.1380   -1.4446    1.6753 O   0  0
   -0.2803   -1.3488    0.5476 C   0  0
   -1.7383   -1.0032    0.3771 C   0  0
   -2.7493   -1.7990    0.7687 C   0  0
   -4.0799   -1.3514    0.5559 C   0  0
   -4.3958   -0.1425   -0.0318 C   0  0
   -5.5494    0.5305   -0.2847 N   0  0
   -6.8518   -0.0816   -0.1397 C   0  0
   -7.7067    0.2038   -1.2915 C   0  0
   -7.6659   -0.4227   -2.4918 C   0  0
   -8.4866    0.0256   -3.5306 C   0  0
   -9.3344    1.0910   -3.3497 C   0  0
  -10.3714    1.6310   -4.7021 Cl  0  0
   -9.3839    1.7297   -2.1385 C   0  0
   -8.5802    1.2954   -1.1189 C   0  0
   -8.6958    2.0943    0.4855 Cl  0  0
   -5.2207    1.7253   -0.8346 C   0  0
   -3.9002    1.7878   -0.9136 N   0  0
   -6.0646    2.6057   -1.2015 O   0  0
   -3.3179    0.6600   -0.4274 C   0  0
   -2.0285    0.2301   -0.2262 C   0  0
    0.4442   -1.5200   -0.6178 N   0  0
    1.8030   -1.8010   -0.8431 C   0  0
    2.8410   -0.9515   -0.2701 C   0  0
    3.6258   -0.2716   -1.2102 C   0  0
    3.2901   -0.2869   -2.6606 C   0  0
    1.9390    0.1419   -2.8052 F   0  0
    4.0156    0.6535   -3.3415 F   0  0
    3.4042   -1.5034   -3.2654 F   0  0
    4.6929    0.4624   -0.7692 C   0  0
    5.0296    0.5652    0.5672 C   0  0
    4.2443   -0.1095    1.4618 C   0  0
    3.1267   -0.8887    1.0590 C   0  0
   -2.5435   -2.7514    1.2139 H   0  0
   -4.8984   -2.0084    0.8924 H   0  0
   -6.7520   -1.1857   -0.0881 H   0  0
   -7.3008    0.2746    0.8329 H   0  0
   -7.0043   -1.2801   -2.6690 H   0  0
   -8.4260   -0.4657   -4.5385 H   0  0
  -10.0605    2.5749   -1.9609 H   0  0
   -3.3362    2.5636   -1.2911 H   0  0
   -1.1821    0.8409   -0.5292 H   0  0
   -0.1746   -1.4326   -1.5983 H   0  0
    1.9555   -2.0334   -1.9318 H   0  0
    1.9827   -2.8361   -0.2966 H   0  0
    5.3705    1.0237   -1.4255 H   0  0
    5.8776    1.1503    0.9177 H   0  0
    4.4550   -0.0760    2.5437 H   0  0
    2.5921   -1.4431    1.8551 H   0  0
  1  2  2  0  0  0
  2 22  1  0  0  0
  2  3  1  0  0  0
  3  4  2  0  0  0
  4  5  1  0  0  0
  5  6  2  0  0  0
  6 20  1  0  0  0
  6  7  1  0  0  0
  7 17  1  0  0  0
  7  8  1  0  0  0
  8  9  1  0  0  0
  9 10  2  0  0  0
 10 11  1  0  0  0
 11 12  2  0  0  0
 12 14  1  0  0  0
 12 13  1  0  0  0
 14 15  2  0  0  0
 15 16  1  0  0  0
 15  9  1  0  0  0
 17 19  2  0  0  0
 17 18  1  0  0  0
 20 21  2  0  0  0
 20 18  1  0  0  0
 21  3  1  0  0  0
 22 23  1  0  0  0
 23 24  1  0  0  0
 24 25  2  0  0  0
 25 30  1  0  0  0
 25 26  1  0  0  0
 26 29  1  0  0  0
 26 28  1  0  0  0
 26 27  1  0  0  0
 30 31  2  0  0  0
 31 32  1  0  0  0
 32 33  2  0  0  0
 33 24  1  0  0  0
  4 34  1  0  0  0
  5 35  1  0  0  0
  8 36  1  0  0  0
  8 37  1  0  0  0
 10 38  1  0  0  0
 11 39  1  0  0  0
 14 40  1  0  0  0
 18 41  1  0  0  0
 21 42  1  0  0  0
 22 43  1  0  0  0
 23 44  1  0  0  0
 23 45  1  0  0  0
 30 46  1  0  0  0
 31 47  1  0  0  0
 32 48  1  0  0  0
 33 49  1  0  0  0
M  END
> <pIC50>
7

$$$$
D4_39
  DSViewer          3D                             0

 49 52  0  0  0  0  0  0  0  0999 V2000
    0.1561   -2.2411    1.6600 O   0  0
   -0.3403   -1.6723    0.7273 C   0  0
   -1.7288   -1.1821    0.5133 C   0  0
   -2.8343   -1.9594    0.4899 C   0  0
   -4.1087   -1.4686    0.1491 C   0  0
   -4.2203   -0.1395   -0.1707 C   0  0
   -5.2573    0.6438   -0.5771 N   0  0
   -6.6252    0.1234   -0.6744 C   0  0
   -7.2888    0.6144    0.5906 C   0  0
   -8.3813    1.4446    0.4610 C   0  0
   -9.0138    1.9521    1.5687 C   0  0
   -8.5469    1.6206    2.8128 C   0  0
   -9.1917    2.1246    3.8983 F   0  0
   -7.4611    0.7941    2.9369 C   0  0
   -6.7914    0.2643    1.8138 C   0  0
   -4.8480    1.8850   -0.8054 C   0  0
   -3.5403    1.9022   -0.5434 N   0  0
   -5.5514    2.8833   -1.2116 O   0  0
   -3.1006    0.6868   -0.1532 C   0  0
   -1.8803    0.1735    0.1849 C   0  0
    0.4695   -1.3641   -0.4004 N   0  0
    1.7733   -1.5174   -0.8080 C   0  0
    2.9509   -1.1551   -0.0505 C   0  0
    3.5920    0.0312   -0.4298 C   0  0
    2.8150    1.0723   -1.1694 C   0  0
    2.3582    0.7750   -2.3922 F   0  0
    3.5492    2.2273   -1.2044 F   0  0
    1.7210    1.4257   -0.2989 F   0  0
    4.8450    0.3268    0.0018 C   0  0
    5.5362   -0.5398    0.8471 C   0  0
    4.9083   -1.6935    1.2244 C   0  0
    3.6064   -2.0131    0.7798 C   0  0
   -2.7562   -2.9898    0.7408 H   0  0
   -4.9589   -2.1258    0.1493 H   0  0
   -7.1473    0.5207   -1.5478 H   0  0
   -6.6304   -0.9826   -0.7316 H   0  0
   -8.7185    1.7004   -0.5362 H   0  0
   -9.8582    2.6016    1.4318 H   0  0
   -7.0671    0.5112    3.9039 H   0  0
   -5.9380   -0.3792    1.9688 H   0  0
   -2.9070    2.7589   -0.6179 H   0  0
   -0.9963    0.7971    0.2102 H   0  0
   -0.1438   -0.8414   -1.1943 H   0  0
    1.8541   -2.7116   -0.9321 H   0  0
    1.9515   -1.2918   -1.9077 H   0  0
    5.3549    1.2590   -0.2854 H   0  0
    6.5140   -0.3124    1.1970 H   0  0
    5.4048   -2.3765    1.8834 H   0  0
    3.1763   -2.9799    1.1178 H   0  0
  1  2  2  0  0  0
  2 21  1  0  0  0
  2  3  1  0  0  0
  3  4  2  0  0  0
  4  5  1  0  0  0
  5  6  2  0  0  0
  6 19  1  0  0  0
  6  7  1  0  0  0
  7 16  1  0  0  0
  7  8  1  0  0  0
  8  9  1  0  0  0
  9 10  2  0  0  0
 10 11  1  0  0  0
 11 12  2  0  0  0
 12 14  1  0  0  0
 12 13  1  0  0  0
 14 15  2  0  0  0
 15  9  1  0  0  0
 16 18  2  0  0  0
 16 17  1  0  0  0
 19 20  2  0  0  0
 19 17  1  0  0  0
 20  3  1  0  0  0
 21 22  1  0  0  0
 22 23  1  0  0  0
 23 24  2  0  0  0
 24 29  1  0  0  0
 24 25  1  0  0  0
 25 28  1  0  0  0
 25 27  1  0  0  0
 25 26  1  0  0  0
 29 30  2  0  0  0
 30 31  1  0  0  0
 31 32  2  0  0  0
 32 23  1  0  0  0
  4 33  1  0  0  0
  5 34  1  0  0  0
  8 35  1  0  0  0
  8 36  1  0  0  0
 10 37  1  0  0  0
 11 38  1  0  0  0
 14 39  1  0  0  0
 15 40  1  0  0  0
 17 41  1  0  0  0
 20 42  1  0  0  0
 21 43  1  0  0  0
 22 44  1  0  0  0
 22 45  1  0  0  0
 29 46  1  0  0  0
 30 47  1  0  0  0
 31 48  1  0  0  0
 32 49  1  0  0  0
M  END
> <pIC50>
6.848

$$$$
D4_26
  DSViewer          3D                             0

 53 56  0  0  0  0  0  0  0  0999 V2000
   -0.0273   -2.0328    1.4658 O   0  0
   -0.3637   -1.5084    0.3995 C   0  0
   -1.7449   -0.9536    0.2531 C   0  0
   -2.6869   -1.4957    1.0581 C   0  0
   -3.9916   -1.0373    1.0247 C   0  0
   -4.3301   -0.0389    0.1714 C   0  0
   -5.5657    0.5369   -0.0103 N   0  0
   -6.7437    0.2861    0.7436 C   0  0
   -7.6024   -0.8571    0.4697 C   0  0
   -7.4251   -2.0580    1.1354 C   0  0
   -8.2541   -3.1280    0.9388 C   0  0
   -9.2954   -3.0237    0.0533 C   0  0
   -9.5140   -1.8467   -0.6385 C   0  0
   -8.6584   -0.7928   -0.4083 C   0  0
   -5.3511    1.4591   -0.9735 C   0  0
   -4.0544    1.4489   -1.3565 N   0  0
   -6.2170    2.2185   -1.4511 O   0  0
   -3.3826    0.5124   -0.6498 C   0  0
   -2.0602    0.0491   -0.6144 C   0  0
    0.5429   -1.4381   -0.6264 N   0  0
    1.8664   -1.7508   -0.9646 C   0  0
    3.0102   -1.2418   -0.2300 C   0  0
    4.0388   -0.6705   -1.0125 C   0  0
    3.7466   -0.4904   -2.4606 C   0  0
    3.7907   -1.7243   -3.1359 F   0  0
    2.5775    0.1843   -2.6633 F   0  0
    4.7863    0.2252   -2.9960 F   0  0
    5.1985   -0.2836   -0.4232 C   0  0
    5.4308   -0.4266    0.9202 C   0  0
    6.6237   -0.0066    1.5058 O   0  0
    7.5816    0.6266    0.7029 C   0  0
    4.4576   -0.9836    1.7092 C   0  0
    3.2506   -1.3813    1.1009 C   0  0
   -2.4550   -2.2939    1.7402 H   0  0
   -4.6828   -1.4786    1.6847 H   0  0
   -6.5273    0.2593    1.8584 H   0  0
   -7.4196    1.2009    0.6458 H   0  0
   -6.6456   -2.1849    1.8537 H   0  0
   -8.0808   -4.0802    1.4825 H   0  0
   -9.9359   -3.9098   -0.0571 H   0  0
  -10.3669   -1.8218   -1.3135 H   0  0
   -8.8719    0.1183   -0.9807 H   0  0
   -3.5999    2.0695   -2.0790 H   0  0
   -1.3433    0.4993   -1.2550 H   0  0
    0.0172   -0.9416   -1.5253 H   0  0
    1.9856   -1.9009   -2.0467 H   0  0
    1.9756   -2.9449   -0.6585 H   0  0
    5.9711    0.1674   -1.0660 H   0  0
    7.2269    1.6810    0.4463 H   0  0
    7.7704    0.1830   -0.2820 H   0  0
    8.5134    0.7821    1.3096 H   0  0
    4.6288   -1.1318    2.7749 H   0  0
    2.5655   -1.8351    1.7913 H   0  0
  1  2  2  0  0  0
  2 20  1  0  0  0
  2  3  1  0  0  0
  3  4  2  0  0  0
  4  5  1  0  0  0
  5  6  2  0  0  0
  6 18  1  0  0  0
  6  7  1  0  0  0
  7 15  1  0  0  0
  7  8  1  0  0  0
  8  9  1  0  0  0
  9 10  2  0  0  0
 10 11  1  0  0  0
 11 12  2  0  0  0
 12 13  1  0  0  0
 13 14  2  0  0  0
 14  9  1  0  0  0
 15 17  2  0  0  0
 15 16  1  0  0  0
 18 19  2  0  0  0
 18 16  1  0  0  0
 19  3  1  0  0  0
 20 21  1  0  0  0
 21 22  1  0  0  0
 22 23  2  0  0  0
 23 28  1  0  0  0
 23 24  1  0  0  0
 24 27  1  0  0  0
 24 26  1  0  0  0
 24 25  1  0  0  0
 28 29  2  0  0  0
 29 32  1  0  0  0
 29 30  1  0  0  0
 30 31  1  0  0  0
 32 33  2  0  0  0
 33 22  1  0  0  0
  4 34  1  0  0  0
  5 35  1  0  0  0
  8 36  1  0  0  0
  8 37  1  0  0  0
 10 38  1  0  0  0
 11 39  1  0  0  0
 12 40  1  0  0  0
 13 41  1  0  0  0
 14 42  1  0  0  0
 16 43  1  0  0  0
 19 44  1  0  0  0
 20 45  1  0  0  0
 21 46  1  0  0  0
 21 47  1  0  0  0
 28 48  1  0  0  0
 31 49  1  0  0  0
 31 50  1  0  0  0
 31 51  1  0  0  0
 32 52  1  0  0  0
 33 53  1  0  0  0
M  END
> <pIC50>
7.553

$$$$
D4_35
  DSViewer          3D                             0

 49 52  0  0  0  0  0  0  0  0999 V2000
   -0.1206   -1.9305    1.7134 O   0  0
   -0.3703   -1.5516    0.5572 C   0  0
   -1.6980   -0.9260    0.3614 C   0  0
   -1.8110    0.4017    0.0528 C   0  0
   -3.1079    0.9028   -0.1552 C   0  0
   -4.2031    0.0828   -0.0501 C   0  0
   -5.5665    0.2719   -0.1057 N   0  0
   -6.2746    1.4733   -0.4297 C   0  0
   -6.8131    1.6210   -1.8025 C   0  0
   -6.2239    2.4591   -2.7197 C   0  0
   -6.8252    2.5668   -3.9954 C   0  0
   -7.9498    1.8725   -4.3213 C   0  0
   -8.5185    1.0462   -3.4056 C   0  0
   -7.9737    0.9050   -2.1492 C   0  0
   -6.1727   -0.9286    0.1758 C   0  0
   -5.2152   -1.8326    0.3931 N   0  0
   -7.3669   -1.1643    0.2427 O   0  0
   -4.0248   -1.2501    0.2603 C   0  0
   -2.7502   -1.7727    0.4678 C   0  0
    0.4993   -1.6862   -0.5146 N   0  0
    1.7796   -2.2783   -0.4712 C   0  0
    2.5130   -2.4802    0.7895 C   0  0
    3.6880   -1.8020    1.0592 C   0  0
    3.9997   -0.6316    0.1791 C   0  0
    4.3596   -0.9569   -1.0721 F   0  0
    5.0612    0.0753    0.7731 F   0  0
    2.9372    0.2632    0.2762 F   0  0
    4.4895   -2.1430    2.1107 C   0  0
    4.1548   -3.1752    2.9458 C   0  0
    3.0028   -3.8521    2.6965 C   0  0
    2.1630   -3.5470    1.6472 C   0  0
   -0.9750    1.0606   -0.0417 H   0  0
   -3.2677    1.9328   -0.4229 H   0  0
   -5.5914    2.3852   -0.2572 H   0  0
   -7.1137    1.7013    0.2873 H   0  0
   -5.3206    3.0698   -2.4705 H   0  0
   -6.4219    3.2195   -4.7324 H   0  0
   -8.4167    1.9718   -5.3341 H   0  0
   -9.4348    0.4331   -3.6195 H   0  0
   -8.4639    0.2449   -1.4207 H   0  0
   -5.3659   -2.8524    0.6449 H   0  0
   -2.6585   -2.8289    0.7132 H   0  0
    0.1942   -1.3235   -1.4633 H   0  0
    1.5862   -3.3857   -0.8967 H   0  0
    2.4465   -1.9150   -1.3251 H   0  0
    5.4255   -1.5719    2.2654 H   0  0
    4.8123   -3.4518    3.7847 H   0  0
    2.7481   -4.6823    3.3828 H   0  0
    1.2843   -4.1195    1.5034 H   0  0
  1  2  2  0  0  0
  2 20  1  0  0  0
  2  3  1  0  0  0
  3  4  2  0  0  0
  4  5  1  0  0  0
  5  6  2  0  0  0
  6 18  1  0  0  0
  6  7  1  0  0  0
  7 15  1  0  0  0
  7  8  1  0  0  0
  8  9  1  0  0  0
  9 10  2  0  0  0
 10 11  1  0  0  0
 11 12  2  0  0  0
 12 13  1  0  0  0
 13 14  2  0  0  0
 14  9  1  0  0  0
 15 17  2  0  0  0
 15 16  1  0  0  0
 18 19  2  0  0  0
 18 16  1  0  0  0
 19  3  1  0  0  0
 20 21  1  0  0  0
 21 22  1  0  0  0
 22 23  2  0  0  0
 23 28  1  0  0  0
 23 24  1  0  0  0
 24 27  1  0  0  0
 24 26  1  0  0  0
 24 25  1  0  0  0
 28 29  2  0  0  0
 29 30  1  0  0  0
 30 31  2  0  0  0
 31 22  1  0  0  0
  4 32  1  0  0  0
  5 33  1  0  0  0
  8 34  1  0  0  0
  8 35  1  0  0  0
 10 36  1  0  0  0
 11 37  1  0  0  0
 12 38  1  0  0  0
 13 39  1  0  0  0
 14 40  1  0  0  0
 16 41  1  0  0  0
 19 42  1  0  0  0
 20 43  1  0  0  0
 21 44  1  0  0  0
 21 45  1  0  0  0
 28 46  1  0  0  0
 29 47  1  0  0  0
 30 48  1  0  0  0
 31 49  1  0  0  0
M  END
> <pIC50>
7.086

$$$$
D4_44
  DSViewer          3D                             0

 52 55  0  0  0  0  0  0  0  0999 V2000
    0.0500   -1.8876    1.6183 O   0  0
   -0.3624   -1.5399    0.5068 C   0  0
   -1.7648   -1.0701    0.3757 C   0  0
   -2.8508   -1.8569    0.6133 C   0  0
   -4.1298   -1.3740    0.4141 C   0  0
   -4.3762   -0.0854   -0.0303 C   0  0
   -5.5175    0.6152   -0.3339 N   0  0
   -6.8048    0.0219   -0.1696 C   0  0
   -7.4955    0.3706    1.1127 C   0  0
   -6.9966   -0.1109    2.3171 C   0  0
   -7.5379    0.2823    3.5157 C   0  0
   -8.5892    1.1664    3.5300 C   0  0
   -9.0861    1.6420    2.3503 C   0  0
   -8.5517    1.2527    1.1348 C   0  0
   -9.2343    1.7244   -0.1352 C   0  0
   -9.8162    0.5751   -0.7436 F   0  0
  -10.3314    2.4733    0.2414 F   0  0
   -8.4821    2.3910   -0.9977 F   0  0
   -5.0995    1.7865   -0.7356 C   0  0
   -3.7285    1.8785   -0.7069 N   0  0
   -5.7484    2.7803   -1.1208 O   0  0
   -3.2890    0.7127   -0.2693 C   0  0
   -2.0032    0.2276   -0.0691 C   0  0
    0.4801   -1.5876   -0.6184 N   0  0
    1.8472   -2.0112   -0.6399 C   0  0
    2.7906   -1.1639    0.1007 C   0  0
    4.1150   -1.5528    0.0841 C   0  0
    4.5681   -2.7575   -0.6064 C   0  0
    4.1604   -3.9421   -0.0655 F   0  0
    5.9745   -2.7987   -0.5432 F   0  0
    4.3016   -2.7790   -1.9583 F   0  0
    5.0214   -0.7684    0.7590 C   0  0
    4.6769    0.3694    1.4409 C   0  0
    3.3428    0.7533    1.4532 C   0  0
    2.4030   -0.0319    0.7718 C   0  0
   -2.6950   -2.8666    0.9642 H   0  0
   -5.0031   -2.0216    0.6032 H   0  0
   -6.7335   -1.0963   -0.1626 H   0  0
   -7.4826    0.3215   -1.0025 H   0  0
   -6.1548   -0.8234    2.3064 H   0  0
   -7.1126   -0.1243    4.4444 H   0  0
   -9.0153    1.4754    4.4860 H   0  0
   -9.9178    2.3391    2.3621 H   0  0
   -3.1692    2.7236   -0.9808 H   0  0
   -1.1415    0.8494   -0.2503 H   0  0
    0.0307   -1.2656   -1.5211 H   0  0
    2.1578   -2.0579   -1.7272 H   0  0
    1.9412   -3.0937   -0.3395 H   0  0
    6.0644   -1.0463    0.7676 H   0  0
    5.4039    0.9863    1.9700 H   0  0
    3.0162    1.6310    1.9646 H   0  0
    1.3839    0.3176    0.8055 H   0  0
  1  2  2  0  0  0
  2 24  1  0  0  0
  2  3  1  0  0  0
  3  4  2  0  0  0
  4  5  1  0  0  0
  5  6  2  0  0  0
  6 22  1  0  0  0
  6  7  1  0  0  0
  7 19  1  0  0  0
  7  8  1  0  0  0
  8  9  1  0  0  0
  9 10  2  0  0  0
 10 11  1  0  0  0
 11 12  2  0  0  0
 12 13  1  0  0  0
 13 14  2  0  0  0
 14 15  1  0  0  0
 14  9  1  0  0  0
 15 18  1  0  0  0
 15 17  1  0  0  0
 15 16  1  0  0  0
 19 21  2  0  0  0
 19 20  1  0  0  0
 22 23  2  0  0  0
 22 20  1  0  0  0
 23  3  1  0  0  0
 24 25  1  0  0  0
 25 26  1  0  0  0
 26 27  2  0  0  0
 27 32  1  0  0  0
 27 28  1  0  0  0
 28 31  1  0  0  0
 28 30  1  0  0  0
 28 29  1  0  0  0
 32 33  2  0  0  0
 33 34  1  0  0  0
 34 35  2  0  0  0
 35 26  1  0  0  0
  4 36  1  0  0  0
  5 37  1  0  0  0
  8 38  1  0  0  0
  8 39  1  0  0  0
 10 40  1  0  0  0
 11 41  1  0  0  0
 12 42  1  0  0  0
 13 43  1  0  0  0
 20 44  1  0  0  0
 23 45  1  0  0  0
 24 46  1  0  0  0
 25 47  1  0  0  0
 25 48  1  0  0  0
 32 49  1  0  0  0
 33 50  1  0  0  0
 34 51  1  0  0  0
 35 52  1  0  0  0
M  END
> <pIC50>
6.517

$$$$
D4_42
  DSViewer          3D                             0

 49 52  0  0  0  0  0  0  0  0999 V2000
    0.3338   -1.9276    1.3409 O   0  0
   -0.2149   -1.4955    0.3009 C   0  0
   -1.5806   -0.9942    0.3694 C   0  0
   -1.9309    0.2448   -0.1101 C   0  0
   -3.2666    0.6587   -0.0331 C   0  0
   -4.2488   -0.1219    0.5018 C   0  0
   -5.5982    0.0544    0.6659 N   0  0
   -6.2317    1.3091    0.2700 C   0  0
   -6.3577    2.2950    1.3685 C   0  0
   -5.2812    3.1507    1.6132 C   0  0
   -5.2976    4.0426    2.6605 C   0  0
   -6.3943    4.1036    3.4951 C   0  0
   -7.4725    3.2837    3.2905 C   0  0
   -7.4298    2.3905    2.2212 C   0  0
   -8.8605    1.4049    1.9165 Cl  0  0
   -6.0605   -1.0571    1.2286 C   0  0
   -5.0244   -1.9069    1.4160 N   0  0
   -7.2650   -1.2833    1.5344 O   0  0
   -3.8948   -1.3604    0.9792 C   0  0
   -2.5650   -1.7869    0.9101 C   0  0
    0.5325   -1.5170   -0.9086 N   0  0
    1.8626   -1.9784   -1.0692 C   0  0
    2.9047   -1.1852   -0.3686 C   0  0
    4.2408   -1.5668   -0.4332 C   0  0
    4.6237   -2.7763   -1.1819 C   0  0
    6.0031   -2.9152   -1.1959 F   0  0
    4.1195   -3.9200   -0.5915 F   0  0
    4.2577   -2.6855   -2.5258 F   0  0
    5.2211   -0.8226    0.1957 C   0  0
    4.9215    0.3249    0.9118 C   0  0
    3.5978    0.7032    0.9755 C   0  0
    2.6206   -0.0449    0.3445 C   0  0
   -1.2064    0.9069   -0.5429 H   0  0
   -3.4955    1.6237   -0.4337 H   0  0
   -5.7495    1.7237   -0.6394 H   0  0
   -7.2664    1.0137   -0.0783 H   0  0
   -4.3950    3.1644    1.0012 H   0  0
   -4.4401    4.7098    2.8399 H   0  0
   -6.4305    4.8048    4.3376 H   0  0
   -8.3315    3.3115    3.9197 H   0  0
   -5.1214   -2.8441    1.8398 H   0  0
   -2.3397   -2.7611    1.2967 H   0  0
   -0.0041   -1.1397   -1.7407 H   0  0
    2.0167   -3.0402   -0.7721 H   0  0
    2.1139   -1.9708   -2.1646 H   0  0
    6.2745   -1.0763    0.1791 H   0  0
    5.7065    0.8965    1.4019 H   0  0
    3.3548    1.5938    1.5284 H   0  0
    1.5667    0.2685    0.3893 H   0  0
  1  2  2  0  0  0
  2 21  1  0  0  0
  2  3  1  0  0  0
  3  4  2  0  0  0
  4  5  1  0  0  0
  5  6  2  0  0  0
  6 19  1  0  0  0
  6  7  1  0  0  0
  7 16  1  0  0  0
  7  8  1  0  0  0
  8  9  1  0  0  0
  9 10  2  0  0  0
 10 11  1  0  0  0
 11 12  2  0  0  0
 12 13  1  0  0  0
 13 14  2  0  0  0
 14 15  1  0  0  0
 14  9  1  0  0  0
 16 18  2  0  0  0
 16 17  1  0  0  0
 19 20  2  0  0  0
 19 17  1  0  0  0
 20  3  1  0  0  0
 21 22  1  0  0  0
 22 23  1  0  0  0
 23 24  2  0  0  0
 24 29  1  0  0  0
 24 25  1  0  0  0
 25 28  1  0  0  0
 25 27  1  0  0  0
 25 26  1  0  0  0
 29 30  2  0  0  0
 30 31  1  0  0  0
 31 32  2  0  0  0
 32 23  1  0  0  0
  4 33  1  0  0  0
  5 34  1  0  0  0
  8 35  1  0  0  0
  8 36  1  0  0  0
 10 37  1  0  0  0
 11 38  1  0  0  0
 12 39  1  0  0  0
 13 40  1  0  0  0
 17 41  1  0  0  0
 20 42  1  0  0  0
 21 43  1  0  0  0
 22 44  1  0  0  0
 22 45  1  0  0  0
 29 46  1  0  0  0
 30 47  1  0  0  0
 31 48  1  0  0  0
 32 49  1  0  0  0
M  END
> <pIC50>
6.767

$$$$
D4_34
  DSViewer          3D                             0

 49 52  0  0  0  0  0  0  0  0999 V2000
    0.0153   -2.1847    1.5746 O   0  0
   -0.3413   -1.6703    0.4988 C   0  0
   -1.7279   -1.1028    0.4251 C   0  0
   -2.7967   -1.7134    0.9828 C   0  0
   -4.0537   -1.1590    0.8117 C   0  0
   -4.2052   -0.0038    0.0829 C   0  0
   -5.3371    0.7313   -0.2123 N   0  0
   -6.6316    0.3297    0.2252 C   0  0
   -7.4744   -0.3754   -0.7636 C   0  0
   -7.3969   -1.7464   -0.9337 C   0  0
   -8.1897   -2.3797   -1.8616 C   0  0
   -9.0757   -1.6059   -2.6358 C   0  0
   -9.1635   -0.2489   -2.4783 C   0  0
   -8.3657    0.3884   -1.5426 C   0  0
   -8.4873    1.7195   -1.4179 F   0  0
   -4.9666    1.7845   -0.9385 C   0  0
   -3.6130    1.7366   -1.1154 N   0  0
   -5.6935    2.7171   -1.4029 O   0  0
   -3.1435    0.6332   -0.4905 C   0  0
   -1.8916    0.0602   -0.3031 C   0  0
    0.4250   -1.5743   -0.6464 N   0  0
    1.7203   -1.9649   -0.9662 C   0  0
    2.8774   -1.4657   -0.2383 C   0  0
    3.6976   -0.5165   -0.8599 C   0  0
    3.1544    0.1601   -2.0529 C   0  0
    1.9544    0.8340   -1.6501 F   0  0
    3.9803    1.1951   -2.4473 F   0  0
    2.8777   -0.6161   -3.1346 F   0  0
    4.9203   -0.1370   -0.3042 C   0  0
    5.3710   -0.6852    0.8818 C   0  0
    4.5367   -1.6371    1.4977 C   0  0
    3.3465   -1.9760    0.9226 C   0  0
   -2.6811   -2.6419    1.5682 H   0  0
   -4.9129   -1.6673    1.2687 H   0  0
   -7.2250    1.2036    0.6261 H   0  0
   -6.5349   -0.3509    1.1319 H   0  0
   -6.6787   -2.2793   -0.3303 H   0  0
   -8.1165   -3.4319   -1.9736 H   0  0
   -9.6806   -2.1602   -3.3273 H   0  0
   -9.8562    0.2996   -3.0953 H   0  0
   -3.0542    2.4183   -1.6541 H   0  0
   -1.0457    0.5667   -0.7514 H   0  0
   -0.0972   -1.0715   -1.4820 H   0  0
    1.6976   -3.1385   -0.6406 H   0  0
    1.9054   -2.1426   -2.0427 H   0  0
    5.5067    0.5960   -0.8201 H   0  0
    6.3185   -0.3806    1.3229 H   0  0
    4.9168   -2.0786    2.4306 H   0  0
    2.7653   -2.7407    1.4703 H   0  0
  1  2  2  0  0  0
  2 21  1  0  0  0
  2  3  1  0  0  0
  3  4  2  0  0  0
  4  5  1  0  0  0
  5  6  2  0  0  0
  6 19  1  0  0  0
  6  7  1  0  0  0
  7 16  1  0  0  0
  7  8  1  0  0  0
  8  9  1  0  0  0
  9 10  2  0  0  0
 10 11  1  0  0  0
 11 12  2  0  0  0
 12 13  1  0  0  0
 13 14  2  0  0  0
 14 15  1  0  0  0
 14  9  1  0  0  0
 16 18  2  0  0  0
 16 17  1  0  0  0
 19 20  2  0  0  0
 19 17  1  0  0  0
 20  3  1  0  0  0
 21 22  1  0  0  0
 22 23  1  0  0  0
 23 24  2  0  0  0
 24 29  1  0  0  0
 24 25  1  0  0  0
 25 28  1  0  0  0
 25 27  1  0  0  0
 25 26  1  0  0  0
 29 30  2  0  0  0
 30 31  1  0  0  0
 31 32  2  0  0  0
 32 23  1  0  0  0
  4 33  1  0  0  0
  5 34  1  0  0  0
  8 35  1  0  0  0
  8 36  1  0  0  0
 10 37  1  0  0  0
 11 38  1  0  0  0
 12 39  1  0  0  0
 13 40  1  0  0  0
 17 41  1  0  0  0
 20 42  1  0  0  0
 21 43  1  0  0  0
 22 44  1  0  0  0
 22 45  1  0  0  0
 29 46  1  0  0  0
 30 47  1  0  0  0
 31 48  1  0  0  0
 32 49  1  0  0  0
M  END
> <pIC50>
7.26

$$$$
D4_46
  DSViewer          3D                             0

 53 56  0  0  0  0  0  0  0  0999 V2000
   -0.0445   -1.6216    1.7920 O   0  0
   -0.4054   -1.4877    0.6204 C   0  0
   -1.7918   -1.0478    0.3793 C   0  0
   -2.8179   -1.9296    0.2319 C   0  0
   -4.0849   -1.4763   -0.0671 C   0  0
   -4.3258   -0.1337   -0.2193 C   0  0
   -5.4600    0.5607   -0.5399 N   0  0
   -6.6802   -0.0382   -0.9498 C   0  0
   -7.7136   -0.4860   -0.0562 C   0  0
   -8.0109   -1.8536    0.0918 C   0  0
   -9.0525   -2.3237    0.8416 C   0  0
   -9.8724   -1.4482    1.4995 C   0  0
   -9.6166   -0.0995    1.3865 C   0  0
   -8.5661    0.3783    0.6269 C   0  0
   -8.3322    1.7188    0.5167 O   0  0
   -9.0519    2.7466    1.0940 C   0  0
   -5.1033    1.8763   -0.5694 C   0  0
   -3.7948    2.0078   -0.2860 N   0  0
   -5.8462    2.8568   -0.8231 O   0  0
   -3.2828    0.7894   -0.0697 C   0  0
   -2.0305    0.3152    0.2251 C   0  0
    0.4610   -1.7309   -0.4944 N   0  0
    1.8051   -2.0790   -0.1916 C   0  0
    2.8056   -2.1105   -1.2441 C   0  0
    3.7487   -1.0638   -1.2373 C   0  0
    3.3709    0.1691   -0.4401 C   0  0
    4.2689    1.1638   -0.7559 F   0  0
    3.2949   -0.0011    0.8827 F   0  0
    2.1427    0.6348   -0.9868 F   0  0
    4.8353   -1.1407   -2.0395 C   0  0
    5.0542   -2.2133   -2.8792 C   0  0
    4.1354   -3.2348   -2.9013 C   0  0
    3.0230   -3.1617   -2.0792 C   0  0
   -2.6685   -3.0146    0.3575 H   0  0
   -4.9275   -2.1827   -0.1638 H   0  0
   -6.3988   -0.9781   -1.5976 H   0  0
   -7.1153    0.6054   -1.8049 H   0  0
   -7.3660   -2.5545   -0.4401 H   0  0
   -9.2457   -3.3820    0.9104 H   0  0
  -10.7181   -1.7972    2.1136 H   0  0
  -10.2955    0.5552    1.9427 H   0  0
   -9.5365    3.3372    0.2467 H   0  0
   -9.8468    2.4396    1.7948 H   0  0
   -8.4209    3.4641    1.6834 H   0  0
   -3.2356    2.9130   -0.2490 H   0  0
   -1.1929    0.9826    0.3359 H   0  0
    0.0974   -1.6554   -1.4381 H   0  0
    1.6420   -3.2853   -0.0235 H   0  0
    2.1392   -1.8583    0.8388 H   0  0
    5.5608   -0.3180   -2.0156 H   0  0
    5.9436   -2.2320   -3.5051 H   0  0
    4.3251   -4.0778   -3.5693 H   0  0
    2.3285   -4.0169   -2.1313 H   0  0
  1  2  2  0  0  0
  2 22  1  0  0  0
  2  3  1  0  0  0
  3  4  2  0  0  0
  4  5  1  0  0  0
  5  6  2  0  0  0
  6 20  1  0  0  0
  6  7  1  0  0  0
  7 17  1  0  0  0
  7  8  1  0  0  0
  8  9  1  0  0  0
  9 10  2  0  0  0
 10 11  1  0  0  0
 11 12  2  0  0  0
 12 13  1  0  0  0
 13 14  2  0  0  0
 14 15  1  0  0  0
 14  9  1  0  0  0
 15 16  1  0  0  0
 17 19  2  0  0  0
 17 18  1  0  0  0
 20 21  2  0  0  0
 20 18  1  0  0  0
 21  3  1  0  0  0
 22 23  1  0  0  0
 23 24  1  0  0  0
 24 25  2  0  0  0
 25 30  1  0  0  0
 25 26  1  0  0  0
 26 29  1  0  0  0
 26 28  1  0  0  0
 26 27  1  0  0  0
 30 31  2  0  0  0
 31 32  1  0  0  0
 32 33  2  0  0  0
 33 24  1  0  0  0
  4 34  1  0  0  0
  5 35  1  0  0  0
  8 36  1  0  0  0
  8 37  1  0  0  0
 10 38  1  0  0  0
 11 39  1  0  0  0
 12 40  1  0  0  0
 13 41  1  0  0  0
 16 42  1  0  0  0
 16 43  1  0  0  0
 16 44  1  0  0  0
 18 45  1  0  0  0
 21 46  1  0  0  0
 22 47  1  0  0  0
 23 48  1  0  0  0
 23 49  1  0  0  0
 30 50  1  0  0  0
 31 51  1  0  0  0
 32 52  1  0  0  0
 33 53  1  0  0  0
M  END
> <pIC50>
6.496

$$$$
D4_49
  DSViewer          3D                             0

 48 51  0  0  0  0  0  0  0  0999 V2000
    0.3216   -1.5822    1.4902 O   0  0
   -0.2231   -1.4095    0.3703 C   0  0
   -1.5800   -0.9236    0.3312 C   0  0
   -2.6272   -1.8053    0.3381 C   0  0
   -3.9495   -1.3952    0.3018 C   0  0
   -4.1852   -0.0387    0.2573 C   0  0
   -5.3745    0.6194    0.2160 N   0  0
   -6.6765   -0.0029    0.2103 C   0  0
   -7.2267   -0.2137    1.5657 C   0  0
   -6.9958   -1.3476    2.2522 N   0  0
   -7.4896   -1.5574    3.4901 C   0  0
   -8.2645   -0.5983    4.1095 C   0  0
   -8.5272    0.5852    3.4378 C   0  0
   -8.0043    0.7524    2.1836 C   0  0
   -5.0562    1.9237    0.1831 C   0  0
   -3.7250    2.0914    0.2026 N   0  0
   -5.8767    2.8562    0.1405 O   0  0
   -3.1554    0.8855    0.2488 C   0  0
   -1.8326    0.4212    0.2868 C   0  0
    0.5321   -1.7042   -0.8054 N   0  0
    1.8772   -2.1792   -0.8162 C   0  0
    2.8780   -1.2404   -0.2641 C   0  0
    4.1908   -1.6953   -0.2336 C   0  0
    4.5646   -3.0661   -0.7150 C   0  0
    5.9508   -3.1634   -0.6313 F   0  0
    4.0590   -4.0608    0.0966 F   0  0
    4.2478   -3.2560   -2.0422 F   0  0
    5.1555   -0.8322    0.2634 C   0  0
    4.8727    0.4356    0.7206 C   0  0
    3.5569    0.8474    0.6724 C   0  0
    2.5772    0.0154    0.1850 C   0  0
   -2.4707   -2.8827    0.3729 H   0  0
   -4.7593   -2.1125    0.3080 H   0  0
   -7.4006    0.6053   -0.4008 H   0  0
   -6.6500   -1.0050   -0.3020 H   0  0
   -7.2941   -2.4742    4.0266 H   0  0
   -8.6409   -0.7921    5.0876 H   0  0
   -9.1342    1.3121    3.9483 H   0  0
   -8.1918    1.6623    1.6374 H   0  0
   -3.2023    3.0026    0.1851 H   0  0
   -1.0711    1.1831    0.2783 H   0  0
   -0.0115   -1.5338   -1.7054 H   0  0
    2.1678   -2.3570   -1.8844 H   0  0
    2.0061   -3.1576   -0.3093 H   0  0
    6.1967   -1.1899    0.2887 H   0  0
    5.6624    1.0842    1.1046 H   0  0
    3.2841    1.8481    1.0253 H   0  0
    1.5722    0.3843    0.1581 H   0  0
  1  2  2  0  0  0
  2 20  1  0  0  0
  2  3  1  0  0  0
  3  4  2  0  0  0
  4  5  1  0  0  0
  5  6  2  0  0  0
  6 18  1  0  0  0
  6  7  1  0  0  0
  7 15  1  0  0  0
  7  8  1  0  0  0
  8  9  1  0  0  0
  9 10  2  0  0  0
 10 11  1  0  0  0
 11 12  2  0  0  0
 12 13  1  0  0  0
 13 14  2  0  0  0
 14  9  1  0  0  0
 15 17  2  0  0  0
 15 16  1  0  0  0
 18 19  2  0  0  0
 18 16  1  0  0  0
 19  3  1  0  0  0
 20 21  1  0  0  0
 21 22  1  0  0  0
 22 23  2  0  0  0
 23 28  1  0  0  0
 23 24  1  0  0  0
 24 27  1  0  0  0
 24 26  1  0  0  0
 24 25  1  0  0  0
 28 29  2  0  0  0
 29 30  1  0  0  0
 30 31  2  0  0  0
 31 22  1  0  0  0
  4 32  1  0  0  0
  5 33  1  0  0  0
  8 34  1  0  0  0
  8 35  1  0  0  0
 11 36  1  0  0  0
 12 37  1  0  0  0
 13 38  1  0  0  0
 14 39  1  0  0  0
 16 40  1  0  0  0
 19 41  1  0  0  0
 20 42  1  0  0  0
 21 43  1  0  0  0
 21 44  1  0  0  0
 28 45  1  0  0  0
 29 46  1  0  0  0
 30 47  1  0  0  0
 31 48  1  0  0  0
M  END
> <pIC50>
6.341

$$$$
D4_06
  DSViewer          3D                             0

 58 62  0  0  0  0  0  0  0  0999 V2000
   -0.3812   -2.4513    1.4168 O   0  0
   -0.4977   -1.6030    0.4557 C   0  0
   -1.8454   -1.2249    0.1269 C   0  0
   -2.9694   -1.8719    0.5998 C   0  0
   -4.2123   -1.2926    0.5316 C   0  0
   -4.3958   -0.0566   -0.0032 C   0  0
   -5.5020    0.7476   -0.1441 N   0  0
   -6.7890    0.3558    0.4422 C   0  0
   -7.5949   -0.5054   -0.4362 C   0  0
   -8.1241   -0.0507   -1.7769 C   0  0
   -6.8943   -0.9662   -1.7142 C   0  0
   -5.0889    1.8597   -0.7095 C   0  0
   -3.7423    1.8401   -0.9480 C   0  0
   -3.2851    0.6062   -0.4929 C   0  0
   -2.0067    0.0257   -0.4332 C   0  0
    0.7028   -1.0673   -0.1871 N   0  0
    1.8906   -1.4801    0.5068 C   0  0
    3.1579   -0.8507    0.2489 C   0  0
    3.6831   -0.1577    1.3654 C   0  0
    2.8272    0.1620    2.5306 C   0  0
    3.4354    1.1591    3.2593 F   0  0
    1.6881    0.9099    1.9679 F   0  0
    2.3230   -0.7931    3.2816 F   0  0
    4.9281    0.3489    1.3498 C   0  0
    5.7927    0.2473    0.2528 C   0  0
    7.0166    0.9696    0.3198 N   0  0
    8.2078    0.8713    1.5292 S   0  0
    9.0937   -0.6027    1.7309 C   0  0
    8.5093   -1.9806    1.5268 C   0  0
    8.8840   -1.5389    2.9263 C   0  0
    9.1796    2.0515    1.4291 O   0  0
    7.5110    1.1545    2.8884 O   0  0
    5.3255   -0.4050   -0.8416 C   0  0
    4.0097   -0.9458   -0.8309 C   0  0
   -2.8895   -2.8327    1.0244 H   0  0
   -5.1023   -1.8284    0.8963 H   0  0
   -6.5983   -0.1057    1.4317 H   0  0
   -7.3372    1.3539    0.6275 H   0  0
   -8.2185   -1.2596    0.0878 H   0  0
   -7.9964    1.0096   -2.0392 H   0  0
   -9.0638   -0.5550   -2.1432 H   0  0
   -7.0096   -2.0251   -1.9839 H   0  0
   -5.9377   -0.4884   -1.9887 H   0  0
   -5.7014    2.7218   -0.9497 H   0  0
   -3.0540    2.5506   -1.3693 H   0  0
   -1.1816    0.5771   -0.8212 H   0  0
    0.5879   -0.4904   -1.0183 H   0  0
    1.7114   -1.8082    1.5768 H   0  0
    2.0434   -2.5743    0.0637 H   0  0
    5.3638    0.8569    2.2202 H   0  0
    7.2381    1.6740   -0.4786 H   0  0
   10.1101   -0.5671    1.2164 H   0  0
    9.2035   -2.7625    1.1211 H   0  0
    7.4546   -2.1525    1.3426 H   0  0
    8.1014   -1.2790    3.6510 H   0  0
    9.8352   -1.9187    3.3719 H   0  0
    5.9334   -0.5638   -1.7297 H   0  0
    3.6924   -1.4536   -1.7041 H   0  0
  1  2  2  0  0  0
  2 16  1  0  0  0
  2  3  1  0  0  0
  3  4  2  0  0  0
  4  5  1  0  0  0
  5  6  2  0  0  0
  6 14  1  0  0  0
  6  7  1  0  0  0
  7 12  1  0  0  0
  7  8  1  0  0  0
  8  9  1  0  0  0
  9 10  1  0  0  0
 10 11  1  0  0  0
 11  9  1  0  0  0
 12 13  2  0  0  0
 14 15  2  0  0  0
 14 13  1  0  0  0
 15  3  1  0  0  0
 16 17  1  0  0  0
 17 18  1  0  0  0
 18 19  2  0  0  0
 19 24  1  0  0  0
 19 20  1  0  0  0
 20 23  1  0  0  0
 20 22  1  0  0  0
 20 21  1  0  0  0
 24 25  2  0  0  0
 25 33  1  0  0  0
 25 26  1  0  0  0
 26 27  1  0  0  0
 27 32  2  0  0  0
 27 31  2  0  0  0
 27 28  1  0  0  0
 28 29  1  0  0  0
 29 30  1  0  0  0
 30 28  1  0  0  0
 33 34  2  0  0  0
 34 18  1  0  0  0
  4 35  1  0  0  0
  5 36  1  0  0  0
  8 37  1  0  0  0
  8 38  1  0  0  0
  9 39  1  0  0  0
 10 40  1  0  0  0
 10 41  1  0  0  0
 11 42  1  0  0  0
 11 43  1  0  0  0
 12 44  1  0  0  0
 13 45  1  0  0  0
 15 46  1  0  0  0
 16 47  1  0  0  0
 17 48  1  0  0  0
 17 49  1  0  0  0
 24 50  1  0  0  0
 26 51  1  0  0  0
 28 52  1  0  0  0
 29 53  1  0  0  0
 29 54  1  0  0  0
 30 55  1  0  0  0
 30 56  1  0  0  0
 33 57  1  0  0  0
 34 58  1  0  0  0
M  END
> <pIC50>
8.523

$$$$
D4_48
  DSViewer          3D                             0

 55 58  0  0  0  0  0  0  0  0999 V2000
    0.5033   -0.9898   -0.6448 O   0  0
   -0.1763   -1.1812    0.4114 C   0  0
   -1.6026   -0.8703    0.3189 C   0  0
   -2.5572   -1.6082    0.9775 C   0  0
   -3.8654   -1.1956    0.8464 C   0  0
   -4.2543   -0.0930    0.1017 C   0  0
   -5.4941    0.4470   -0.1853 N   0  0
   -6.6559   -0.0405    0.4136 C   0  0
   -7.7766    0.8054    0.8392 C   0  0
   -7.6155    1.9501    1.7497 C   0  0
   -8.9192    2.1964    2.5413 C   0  0
  -10.1152    1.7689    1.7089 C   0  0
  -10.1003    0.2751    1.4535 C   0  0
   -8.7193   -0.1843    1.6669 C   0  0
   -5.2973    1.4963   -0.9898 C   0  0
   -3.9575    1.6148   -1.2127 N   0  0
   -6.1456    2.2867   -1.4916 O   0  0
   -3.2986    0.6432   -0.5518 C   0  0
   -1.9931    0.2469   -0.4329 C   0  0
    0.4644   -1.6275    1.5506 N   0  0
    1.8364   -1.9351    1.7881 C   0  0
    2.8200   -1.2262    0.9240 C   0  0
    3.6470   -0.2706    1.5121 C   0  0
    3.4059    0.2437    2.8786 C   0  0
    3.5268   -0.6554    3.8863 F   0  0
    2.1451    0.8609    2.8705 F   0  0
    4.3341    1.2631    3.1341 F   0  0
    4.6645    0.2764    0.7682 C   0  0
    4.8937   -0.0884   -0.5415 C   0  0
    4.1000   -1.0201   -1.1299 C   0  0
    3.0673   -1.5817   -0.3880 C   0  0
   -2.2288   -2.4665    1.5476 H   0  0
   -4.6172   -1.7689    1.3505 H   0  0
   -6.3509   -0.6079    1.3917 H   0  0
   -7.0275   -0.9222   -0.1916 H   0  0
   -8.4322    1.0608   -0.0432 H   0  0
   -7.5738    2.8887    1.0648 H   0  0
   -6.7368    2.0015    2.3734 H   0  0
   -8.8935    1.7767    3.5421 H   0  0
   -9.0443    3.3197    2.6567 H   0  0
  -11.0239    1.9866    2.2786 H   0  0
  -10.0650    2.2454    0.7324 H   0  0
  -10.7738   -0.2487    2.1827 H   0  0
  -10.4780   -0.0109    0.4683 H   0  0
   -8.4715   -1.1984    1.3133 H   0  0
   -8.3949   -0.0958    2.7257 H   0  0
   -3.4851    2.3232   -1.7849 H   0  0
   -1.2104    0.8003   -0.9207 H   0  0
   -0.1919   -1.7919    2.4070 H   0  0
    2.0947   -1.9836    2.8487 H   0  0
    1.9677   -3.0439    1.4504 H   0  0
    5.3483    1.0344    1.1988 H   0  0
    5.7122    0.3780   -1.0679 H   0  0
    4.2522   -1.3265   -2.1517 H   0  0
    2.5010   -2.3495   -0.8530 H   0  0
  1  2  2  0  0  0
  2 20  1  0  0  0
  2  3  1  0  0  0
  3  4  2  0  0  0
  4  5  1  0  0  0
  5  6  2  0  0  0
  6 18  1  0  0  0
  6  7  1  0  0  0
  7 15  1  0  0  0
  7  8  1  0  0  0
  8  9  1  0  0  0
  9 10  1  0  0  0
 10 11  1  0  0  0
 11 12  1  0  0  0
 12 13  1  0  0  0
 13 14  1  0  0  0
 14  9  1  0  0  0
 15 17  2  0  0  0
 15 16  1  0  0  0
 18 19  2  0  0  0
 18 16  1  0  0  0
 19  3  1  0  0  0
 20 21  1  0  0  0
 21 22  1  0  0  0
 22 23  2  0  0  0
 23 28  1  0  0  0
 23 24  1  0  0  0
 24 27  1  0  0  0
 24 26  1  0  0  0
 24 25  1  0  0  0
 28 29  2  0  0  0
 29 30  1  0  0  0
 30 31  2  0  0  0
 31 22  1  0  0  0
  4 32  1  0  0  0
  5 33  1  0  0  0
  8 34  1  0  0  0
  8 35  1  0  0  0
  9 36  1  0  0  0
 10 37  1  0  0  0
 10 38  1  0  0  0
 11 39  1  0  0  0
 11 40  1  0  0  0
 12 41  1  0  0  0
 12 42  1  0  0  0
 13 43  1  0  0  0
 13 44  1  0  0  0
 14 45  1  0  0  0
 14 46  1  0  0  0
 16 47  1  0  0  0
 19 48  1  0  0  0
 20 49  1  0  0  0
 21 50  1  0  0  0
 21 51  1  0  0  0
 28 52  1  0  0  0
 29 53  1  0  0  0
 30 54  1  0  0  0
 31 55  1  0  0  0
M  END
> <pIC50>
6.492

$$$$
D4_12
  DSViewer          3D                             0

 59 63  0  0  0  0  0  0  0  0999 V2000
    0.1290   -1.2975    1.4846 O   0  0
   -0.3214   -1.2866    0.3199 C   0  0
   -1.7643   -0.9262    0.1620 C   0  0
   -2.6401   -1.2986    1.1858 C   0  0
   -3.9350   -0.8942    1.2324 C   0  0
   -4.4321   -0.0639    0.2049 C   0  0
   -5.6516    0.5511    0.0630 N   0  0
   -6.7244    0.3801    0.9754 C   0  0
   -7.9130   -0.3782    0.7240 C   0  0
   -8.0706   -1.7669    0.2773 C   0  0
   -9.1563   -1.3215   -0.5426 O   0  0
   -9.0064    0.0322   -0.2205 C   0  0
   -5.5653    1.3021   -1.0314 C   0  0
   -4.2603    1.1808   -1.6076 C   0  0
   -3.5740    0.2876   -0.7901 C   0  0
   -2.2541   -0.1352   -0.8231 C   0  0
    0.5247   -1.5900   -0.7352 N   0  0
    1.9015   -1.8879   -0.8576 C   0  0
    2.9169   -0.9951   -0.2995 C   0  0
    3.9180   -0.4888   -1.1231 C   0  0
    3.8129   -0.6777   -2.5828 C   0  0
    4.7702    0.0893   -3.2556 F   0  0
    2.5938   -0.0809   -2.9502 F   0  0
    3.8833   -1.9527   -3.0417 F   0  0
    5.0157    0.2054   -0.6612 C   0  0
    5.1764    0.4277    0.6720 C   0  0
    6.3596    1.0522    1.1537 N   0  0
    7.7374    1.2578    0.1821 S   0  0
    8.4033   -0.2935   -0.4019 C   0  0
    9.5456   -0.1736   -1.3641 C   0  0
    8.2141   -0.6223   -1.8247 C   0  0
    7.4941    2.2095   -0.9517 O   0  0
    8.8690    1.8815    1.0039 O   0  0
    4.2115   -0.0518    1.5256 C   0  0
    3.0965   -0.7492    1.0358 C   0  0
   -2.2373   -1.9574    1.9496 H   0  0
   -4.6325   -1.1629    1.9923 H   0  0
   -7.0818    1.4420    1.3439 H   0  0
   -6.3075    0.0186    2.0019 H   0  0
   -8.5221   -0.3137    1.8059 H   0  0
   -7.2614   -2.2307   -0.3348 H   0  0
   -8.4920   -2.4441    1.0474 H   0  0
   -9.9771    0.3662    0.2750 H   0  0
   -8.8050    0.7352   -1.0105 H   0  0
   -6.3240    1.9366   -1.4963 H   0  0
   -3.9458    1.6798   -2.4968 H   0  0
   -1.6254    0.1526   -1.6578 H   0  0
   -0.0283   -1.6645   -1.6972 H   0  0
    2.0566   -2.9164   -0.2144 H   0  0
    2.1658   -2.3040   -1.8408 H   0  0
    5.7267    0.6168   -1.3502 H   0  0
    6.3594    1.4002    2.1568 H   0  0
    8.6205   -1.0156    0.3990 H   0  0
   10.3473   -0.9286   -1.3685 H   0  0
    9.8484    0.8483   -1.7023 H   0  0
    8.0411   -1.6972   -2.0873 H   0  0
    7.6173    0.0696   -2.4633 H   0  0
    4.3438    0.1254    2.5838 H   0  0
    2.4443   -1.0894    1.8027 H   0  0
  1  2  2  0  0  0
  2 17  1  0  0  0
  2  3  1  0  0  0
  3  4  2  0  0  0
  4  5  1  0  0  0
  5  6  2  0  0  0
  6 15  1  0  0  0
  6  7  1  0  0  0
  7 13  1  0  0  0
  7  8  1  0  0  0
  8  9  1  0  0  0
  9 10  1  0  0  0
 10 11  1  0  0  0
 11 12  1  0  0  0
 12  9  1  0  0  0
 13 14  2  0  0  0
 15 16  2  0  0  0
 15 14  1  0  0  0
 16  3  1  0  0  0
 17 18  1  0  0  0
 18 19  1  0  0  0
 19 20  2  0  0  0
 20 25  1  0  0  0
 20 21  1  0  0  0
 21 24  1  0  0  0
 21 23  1  0  0  0
 21 22  1  0  0  0
 25 26  2  0  0  0
 26 34  1  0  0  0
 26 27  1  0  0  0
 27 28  1  0  0  0
 28 33  2  0  0  0
 28 32  2  0  0  0
 28 29  1  0  0  0
 29 30  1  0  0  0
 30 31  1  0  0  0
 31 29  1  0  0  0
 34 35  2  0  0  0
 35 19  1  0  0  0
  4 36  1  0  0  0
  5 37  1  0  0  0
  8 38  1  0  0  0
  8 39  1  0  0  0
  9 40  1  0  0  0
 10 41  1  0  0  0
 10 42  1  0  0  0
 12 43  1  0  0  0
 12 44  1  0  0  0
 13 45  1  0  0  0
 14 46  1  0  0  0
 16 47  1  0  0  0
 17 48  1  0  0  0
 18 49  1  0  0  0
 18 50  1  0  0  0
 25 51  1  0  0  0
 27 52  1  0  0  0
 29 53  1  0  0  0
 30 54  1  0  0  0
 30 55  1  0  0  0
 31 56  1  0  0  0
 31 57  1  0  0  0
 34 58  1  0  0  0
 35 59  1  0  0  0
M  END
> <pIC50>
8.301

$$$$
D4_24
  DSViewer          3D                             0

 63 66  0  0  0  0  0  0  0  0999 V2000
   -0.6357   -2.9763   -1.1996 O   0  0
   -0.6741   -1.8528   -0.6359 C   0  0
   -1.9811   -1.2672   -0.3720 C   0  0
   -3.1177   -2.0780   -0.4370 C   0  0
   -4.3350   -1.5113   -0.1934 C   0  0
   -4.4566   -0.1589    0.1138 C   0  0
   -5.5331    0.6025    0.3861 N   0  0
   -6.8822    0.1142    0.4126 C   0  0
   -7.5760    0.2045   -0.9212 C   0  0
   -8.9237   -0.3234   -0.7362 N   0  3
   -9.5880   -0.4877   -2.0271 C   0  0
   -9.7093    0.5224    0.1350 C   0  0
   -5.1352    1.8627    0.6220 C   0  0
   -3.7613    1.9094    0.4967 C   0  0
   -3.3467    0.6106    0.1723 C   0  0
   -2.1029    0.0648   -0.0695 C   0  0
    0.5357   -1.1823   -0.2699 N   0  0
    1.7693   -1.8104   -0.5589 C   0  0
    2.9388   -1.0591   -0.1535 C   0  0
    4.1977   -1.6233   -0.4124 C   0  0
    4.3348   -2.9371   -1.0720 C   0  0
    3.7955   -2.9776   -2.3242 F   0  0
    3.7949   -3.9742   -0.3262 F   0  0
    5.6890   -3.2088   -1.1907 F   0  0
    5.3060   -0.9064   -0.0272 C   0  0
    5.2740    0.3226    0.5921 C   0  0
    6.4296    1.0437    1.0129 N   0  0
    7.6813    1.4301   -0.0595 S   0  0
    8.4678    0.0208   -0.7676 C   0  0
    8.0507   -0.4058   -2.1473 C   0  0
    9.3423    0.2775   -1.9806 C   0  0
    7.1649    2.2563   -1.2270 O   0  0
    8.7212    2.3153    0.6235 O   0  0
    4.0319    0.8558    0.8365 C   0  0
    2.8888    0.1563    0.4598 C   0  0
   -2.9823   -3.1249   -0.6788 H   0  0
   -5.2444   -2.1121   -0.2349 H   0  0
   -6.8695   -0.9675    0.7024 H   0  0
   -7.5054    0.6279    1.1698 H   0  0
   -7.0957   -0.4261   -1.6866 H   0  0
   -7.6741    1.2573   -1.2417 H   0  0
   -8.9043   -1.2732   -0.3000 H   0  0
   -8.8718   -1.0636   -2.6708 H   0  0
  -10.4409   -1.1827   -1.8431 H   0  0
   -9.8891    0.4663   -2.4647 H   0  0
   -9.8519    0.0646    1.1479 H   0  0
   -9.2555    1.5086    0.3100 H   0  0
  -10.7237    0.6416   -0.2838 H   0  0
   -5.8202    2.6632    0.8642 H   0  0
   -3.1212    2.7582    0.6188 H   0  0
   -1.2431    0.7504   -0.0091 H   0  0
    0.4242   -0.2761    0.1892 H   0  0
    1.7954   -2.8854   -0.2228 H   0  0
    1.8066   -1.9311   -1.6941 H   0  0
    6.3099   -1.3345   -0.1966 H   0  0
    6.5137    1.3485    2.0212 H   0  0
    8.8673   -0.7185   -0.0300 H   0  0
    7.2439    0.1506   -2.6624 H   0  0
    8.0243   -1.5102   -2.3310 H   0  0
   10.2461   -0.3321   -2.0425 H   0  0
    9.4653    1.3239   -2.3058 H   0  0
    3.9616    1.8324    1.3286 H   0  0
    1.9471    0.6744    0.7025 H   0  0
  1  2  2  0  0  0
  2 17  1  0  0  0
  2  3  1  0  0  0
  3  4  2  0  0  0
  4  5  1  0  0  0
  5  6  2  0  0  0
  6 15  1  0  0  0
  6  7  1  0  0  0
  7 13  1  0  0  0
  7  8  1  0  0  0
  8  9  1  0  0  0
  9 10  1  0  0  0
 10 12  1  0  0  0
 10 11  1  0  0  0
 13 14  2  0  0  0
 15 16  2  0  0  0
 15 14  1  0  0  0
 16  3  1  0  0  0
 17 18  1  0  0  0
 18 19  1  0  0  0
 19 20  2  0  0  0
 20 25  1  0  0  0
 20 21  1  0  0  0
 21 24  1  0  0  0
 21 23  1  0  0  0
 21 22  1  0  0  0
 25 26  2  0  0  0
 26 34  1  0  0  0
 26 27  1  0  0  0
 27 28  1  0  0  0
 28 33  2  0  0  0
 28 32  2  0  0  0
 28 29  1  0  0  0
 29 30  1  0  0  0
 30 31  1  0  0  0
 31 29  1  0  0  0
 34 35  2  0  0  0
 35 19  1  0  0  0
  4 36  1  0  0  0
  5 37  1  0  0  0
  8 38  1  0  0  0
  8 39  1  0  0  0
  9 40  1  0  0  0
  9 41  1  0  0  0
 10 42  1  0  0  0
 11 43  1  0  0  0
 11 44  1  0  0  0
 11 45  1  0  0  0
 12 46  1  0  0  0
 12 47  1  0  0  0
 12 48  1  0  0  0
 13 49  1  0  0  0
 14 50  1  0  0  0
 16 51  1  0  0  0
 17 52  1  0  0  0
 18 53  1  0  0  0
 18 54  1  0  0  0
 25 55  1  0  0  0
 27 56  1  0  0  0
 29 57  1  0  0  0
 30 58  1  0  0  0
 30 59  1  0  0  0
 31 60  1  0  0  0
 31 61  1  0  0  0
 34 62  1  0  0  0
 35 63  1  0  0  0
M  CHG  1  10   1
M  END
> <pIC50>
7.745

$$$$
D4_08
  DSViewer          3D                             0

 58 61  0  0  0  0  0  0  0  0999 V2000
    0.3666   -0.7880    1.4229 O   0  0
   -0.1972   -1.1043    0.3764 C   0  0
   -1.6195   -0.7520    0.2761 C   0  0
   -2.0046    0.4472   -0.3146 C   0  0
   -3.3296    0.7906   -0.3827 C   0  0
   -4.3191   -0.0358    0.1274 C   0  0
   -5.6615    0.1033    0.1789 N   0  0
   -6.4337    1.2094   -0.3438 C   0  0
   -6.7095    2.2792    0.6478 C   0  0
   -7.4046    3.3528    0.1135 O   0  0
   -8.6203    3.0601   -0.4380 C   0  0
   -6.1437   -0.9870    0.7980 C   0  0
   -5.1009   -1.8428    1.1500 C   0  0
   -3.9525   -1.2214    0.7132 C   0  0
   -2.5776   -1.5724    0.7786 C   0  0
    0.5186   -1.7470   -0.6462 N   0  0
    1.8684   -2.1442   -0.7997 C   0  0
    2.8988   -1.2494   -0.2621 C   0  0
    3.7675   -0.6498   -1.1638 C   0  0
    3.5367   -0.8636   -2.6010 C   0  0
    3.8985   -2.0663   -3.0978 F   0  0
    4.3441    0.0796   -3.2930 F   0  0
    2.2430   -0.4592   -2.9755 F   0  0
    4.8267    0.1416   -0.7744 C   0  0
    5.0841    0.3788    0.5692 C   0  0
    6.1563    1.2121    0.9291 N   0  0
    7.6694    1.3299    0.1597 S   0  0
    8.6260   -0.1669    0.1748 C   0  0
    8.3833   -1.2078   -0.8611 C   0  0
    9.6386   -0.3564   -0.9362 C   0  0
    7.5495    1.7601   -1.2809 O   0  0
    8.5073    2.4180    0.8210 O   0  0
    4.2370   -0.2174    1.4548 C   0  0
    3.1649   -1.0166    1.0636 C   0  0
   -1.1949    1.0692   -0.7009 H   0  0
   -3.5929    1.7303   -0.8568 H   0  0
   -5.8946    1.6833   -1.2218 H   0  0
   -7.3602    0.7375   -0.7711 H   0  0
   -7.2557    1.8288    1.5046 H   0  0
   -5.7611    2.6767    1.0589 H   0  0
   -8.5001    2.3502   -1.2793 H   0  0
   -8.9649    4.0225   -0.9478 H   0  0
   -9.4307    2.8031    0.2320 H   0  0
   -7.2003   -1.1684    0.9953 H   0  0
   -5.1539   -2.7910    1.6479 H   0  0
   -2.3078   -2.5111    1.2372 H   0  0
   -0.1389   -2.0093   -1.5011 H   0  0
    2.0668   -2.4573   -1.8459 H   0  0
    2.0523   -3.1247   -0.2252 H   0  0
    5.4875    0.6007   -1.5246 H   0  0
    6.0018    1.8543    1.7904 H   0  0
    8.9175   -0.5511    1.1735 H   0  0
    8.4972   -2.2917   -0.5695 H   0  0
    7.6063   -1.0537   -1.6531 H   0  0
    9.6827    0.3707   -1.7795 H   0  0
   10.6272   -0.7869   -0.6523 H   0  0
    4.3838   -0.0929    2.5498 H   0  0
    2.5792   -1.5067    1.8140 H   0  0
  1  2  2  0  0  0
  2 16  1  0  0  0
  2  3  1  0  0  0
  3  4  2  0  0  0
  4  5  1  0  0  0
  5  6  2  0  0  0
  6 14  1  0  0  0
  6  7  1  0  0  0
  7 12  1  0  0  0
  7  8  1  0  0  0
  8  9  1  0  0  0
  9 10  1  0  0  0
 10 11  1  0  0  0
 12 13  2  0  0  0
 14 15  2  0  0  0
 14 13  1  0  0  0
 15  3  1  0  0  0
 16 17  1  0  0  0
 17 18  1  0  0  0
 18 19  2  0  0  0
 19 24  1  0  0  0
 19 20  1  0  0  0
 20 23  1  0  0  0
 20 22  1  0  0  0
 20 21  1  0  0  0
 24 25  2  0  0  0
 25 33  1  0  0  0
 25 26  1  0  0  0
 26 27  1  0  0  0
 27 32  2  0  0  0
 27 31  2  0  0  0
 27 28  1  0  0  0
 28 29  1  0  0  0
 29 30  1  0  0  0
 30 28  1  0  0  0
 33 34  2  0  0  0
 34 18  1  0  0  0
  4 35  1  0  0  0
  5 36  1  0  0  0
  8 37  1  0  0  0
  8 38  1  0  0  0
  9 39  1  0  0  0
  9 40  1  0  0  0
 11 41  1  0  0  0
 11 42  1  0  0  0
 11 43  1  0  0  0
 12 44  1  0  0  0
 13 45  1  0  0  0
 15 46  1  0  0  0
 16 47  1  0  0  0
 17 48  1  0  0  0
 17 49  1  0  0  0
 24 50  1  0  0  0
 26 51  1  0  0  0
 28 52  1  0  0  0
 29 53  1  0  0  0
 29 54  1  0  0  0
 30 55  1  0  0  0
 30 56  1  0  0  0
 33 57  1  0  0  0
 34 58  1  0  0  0
M  END
> <pIC50>
8.523

$$$$
D4_03
  DSViewer          3D                             0

 57 60  0  0  0  0  0  0  0  0999 V2000
    0.2780   -1.6087    1.8781 O   0  0
   -0.2682   -1.4166    0.8422 C   0  0
   -1.7039   -1.0057    0.5972 C   0  0
   -2.6681   -1.9353    0.2855 C   0  0
   -3.9364   -1.5494   -0.1603 C   0  0
   -4.2147   -0.1832   -0.2904 C   0  0
   -5.2662    0.4524   -0.8283 N   0  0
   -6.8441   -0.0743   -1.2038 S   0  0
   -7.8051   -0.3534    0.2059 C   0  0
   -8.8117    0.5924    0.4865 C   0  0
   -9.6073    0.4839    1.5594 C   0  0
  -10.5892    1.4168    1.8121 F   0  0
   -9.4721   -0.5890    2.4631 C   0  0
   -8.4967   -1.5036    2.1800 C   0  0
   -7.6876   -1.3750    1.0761 C   0  0
   -6.7720   -1.4295   -1.9380 O   0  0
   -7.5318    0.8893   -2.1695 O   0  0
   -4.9899    1.8037   -0.8551 C   0  0
   -3.7498    1.9855   -0.3259 C   0  0
   -3.2441    0.7420    0.0275 C   0  0
   -1.9874    0.3206    0.4760 C   0  0
    0.4351   -1.5479   -0.3782 N   0  0
    1.7357   -1.8371   -0.8115 C   0  0
    2.8312   -1.0309   -0.2847 C   0  0
    3.4362   -0.2055   -1.2520 C   0  0
    2.9488   -0.1095   -2.6394 C   0  0
    3.2180   -1.1270   -3.4668 F   0  0
    3.5595    1.0344   -3.2039 F   0  0
    1.5892    0.2563   -2.6066 F   0  0
    4.4975    0.5420   -0.8590 C   0  0
    5.0084    0.5352    0.4182 C   0  0
    6.1286    1.3595    0.6963 N   0  0
    7.6826    0.7019    1.0213 S   0  0
    8.1444   -0.1770   -0.4776 C   0  0
    7.6709   -0.2222    2.1930 O   0  0
    8.6296    1.8449    1.2803 O   0  0
    4.4296   -0.2602    1.3475 C   0  0
    3.3302   -1.0494    0.9925 C   0  0
   -2.4131   -3.0023    0.3967 H   0  0
   -4.6819   -2.2548   -0.4110 H   0  0
   -8.9254    1.3999   -0.1851 H   0  0
  -10.1105   -0.6715    3.3244 H   0  0
   -8.3763   -2.3162    2.8539 H   0  0
   -6.9496   -2.1361    0.9449 H   0  0
   -5.6238    2.5942   -1.2355 H   0  0
   -3.2473    2.9262   -0.2038 H   0  0
   -1.2524    1.0590    0.7387 H   0  0
   -0.2321   -1.3406   -1.2527 H   0  0
    1.8379   -2.0848   -1.8849 H   0  0
    1.9523   -2.8906   -0.3376 H   0  0
    5.0024    1.2016   -1.5643 H   0  0
    5.9972    2.3865    0.6910 H   0  0
    7.2198   -0.7250   -0.8037 H   0  0
    8.3085    0.5933   -1.2309 H   0  0
    8.9622   -0.8740   -0.3154 H   0  0
    4.7723   -0.3327    2.3688 H   0  0
    2.8946   -1.7061    1.7236 H   0  0
  1  2  2  0  0  0
  2 22  1  0  0  0
  2  3  1  0  0  0
  3  4  2  0  0  0
  4  5  1  0  0  0
  5  6  2  0  0  0
  6 20  1  0  0  0
  6  7  1  0  0  0
  7 18  1  0  0  0
  7  8  1  0  0  0
  8 17  2  0  0  0
  8 16  2  0  0  0
  8  9  1  0  0  0
  9 10  2  0  0  0
 10 11  1  0  0  0
 11 13  2  0  0  0
 11 12  1  0  0  0
 13 14  1  0  0  0
 14 15  2  0  0  0
 15  9  1  0  0  0
 18 19  2  0  0  0
 20 21  2  0  0  0
 20 19  1  0  0  0
 21  3  1  0  0  0
 22 23  1  0  0  0
 23 24  1  0  0  0
 24 25  2  0  0  0
 25 30  1  0  0  0
 25 26  1  0  0  0
 26 29  1  0  0  0
 26 28  1  0  0  0
 26 27  1  0  0  0
 30 31  2  0  0  0
 31 37  1  0  0  0
 31 32  1  0  0  0
 32 33  1  0  0  0
 33 36  2  0  0  0
 33 35  2  0  0  0
 33 34  1  0  0  0
 37 38  2  0  0  0
 38 24  1  0  0  0
  4 39  1  0  0  0
  5 40  1  0  0  0
 10 41  1  0  0  0
 13 42  1  0  0  0
 14 43  1  0  0  0
 15 44  1  0  0  0
 18 45  1  0  0  0
 19 46  1  0  0  0
 21 47  1  0  0  0
 22 48  1  0  0  0
 23 49  1  0  0  0
 23 50  1  0  0  0
 30 51  1  0  0  0
 32 52  1  0  0  0
 34 53  1  0  0  0
 34 54  1  0  0  0
 34 55  1  0  0  0
 37 56  1  0  0  0
 38 57  1  0  0  0
M  END
> <pIC50>
8.699

$$$$
D4_02
  DSViewer          3D                             0

 61 65  0  0  0  0  0  0  0  0999 V2000
    0.5003   -1.7484    1.4721 O   0  0
   -0.0950   -1.4275    0.4123 C   0  0
   -1.4427   -0.8724    0.4676 C   0  0
   -2.2902   -1.1629    1.5142 C   0  0
   -3.5588   -0.6215    1.5772 C   0  0
   -4.0443    0.2376    0.5988 C   0  0
   -5.2033    0.8916    0.4205 N   0  0
   -6.5819    0.8972    1.4253 S   0  0
   -6.1668    1.5479    2.9789 C   0  0
   -5.9068    0.7174    4.0350 C   0  0
   -5.5603    1.2569    5.2585 C   0  0
   -5.3133    0.3921    6.2728 F   0  0
   -5.4746    2.6253    5.4242 C   0  0
   -5.7334    3.4596    4.3716 C   0  0
   -6.0836    2.9306    3.1341 C   0  0
   -7.0509   -0.5385    1.6323 O   0  0
   -7.7303    1.6394    0.8069 O   0  0
   -5.1324    1.6131   -0.7374 C   0  0
   -3.8879    1.3864   -1.2742 C   0  0
   -3.1930    0.5258   -0.4483 C   0  0
   -1.9086   -0.0243   -0.5101 C   0  0
    0.5537   -1.6101   -0.8343 N   0  0
    1.8938   -2.1419   -0.9666 C   0  0
    2.9407   -1.2735   -0.4118 C   0  0
    4.2600   -1.7323   -0.4656 C   0  0
    4.6214   -3.0606   -1.0256 C   0  0
    4.0935   -4.0571   -0.2268 F   0  0
    6.0092   -3.1559   -0.9868 F   0  0
    4.2459   -3.1885   -2.3528 F   0  0
    5.2230   -0.8745    0.0380 C   0  0
    4.9677    0.3602    0.5695 C   0  0
    5.9922    1.2090    1.0713 N   0  0
    7.4529    1.3932    0.1937 S   0  0
    7.1517    2.0879   -1.3972 C   0  0
    6.1306    3.2117   -1.3925 C   0  0
    5.9072    1.8919   -2.1359 C   0  0
    8.2001    0.0878    0.0924 O   0  0
    8.2959    2.4076    0.9584 O   0  0
    3.6383    0.7762    0.6017 C   0  0
    2.6314   -0.0442    0.1109 C   0  0
   -1.9146   -1.8370    2.2864 H   0  0
   -4.2184   -0.8643    2.3967 H   0  0
   -5.9672   -0.3729    3.9379 H   0  0
   -5.2015    3.0507    6.3818 H   0  0
   -5.6544    4.5185    4.5340 H   0  0
   -6.2895    3.5758    2.3002 H   0  0
   -5.9262    2.2364   -1.1321 H   0  0
   -3.4771    1.7959   -2.1946 H   0  0
   -1.2691    0.2282   -1.3475 H   0  0
   -0.0110   -1.3318   -1.6941 H   0  0
    2.1291   -2.3924   -2.0270 H   0  0
    1.8641   -3.1440   -0.4497 H   0  0
    6.2618   -1.2032    0.0132 H   0  0
    5.8098    1.6962    1.9711 H   0  0
    8.0760    2.2332   -2.0095 H   0  0
    6.4350    4.1076   -1.9547 H   0  0
    5.5331    3.4031   -0.4765 H   0  0
    5.9352    2.0525   -3.2467 H   0  0
    5.0513    1.2950   -1.8370 H   0  0
    3.4295    1.7619    1.0245 H   0  0
    1.6031    0.3125    0.1397 H   0  0
  1  2  2  0  0  0
  2 22  1  0  0  0
  2  3  1  0  0  0
  3  4  2  0  0  0
  4  5  1  0  0  0
  5  6  2  0  0  0
  6 20  1  0  0  0
  6  7  1  0  0  0
  7 18  1  0  0  0
  7  8  1  0  0  0
  8 17  2  0  0  0
  8 16  2  0  0  0
  8  9  1  0  0  0
  9 10  2  0  0  0
 10 11  1  0  0  0
 11 13  2  0  0  0
 11 12  1  0  0  0
 13 14  1  0  0  0
 14 15  2  0  0  0
 15  9  1  0  0  0
 18 19  2  0  0  0
 20 21  2  0  0  0
 20 19  1  0  0  0
 21  3  1  0  0  0
 22 23  1  0  0  0
 23 24  1  0  0  0
 24 25  2  0  0  0
 25 30  1  0  0  0
 25 26  1  0  0  0
 26 29  1  0  0  0
 26 28  1  0  0  0
 26 27  1  0  0  0
 30 31  2  0  0  0
 31 39  1  0  0  0
 31 32  1  0  0  0
 32 33  1  0  0  0
 33 38  2  0  0  0
 33 37  2  0  0  0
 33 34  1  0  0  0
 34 35  1  0  0  0
 35 36  1  0  0  0
 36 34  1  0  0  0
 39 40  2  0  0  0
 40 24  1  0  0  0
  4 41  1  0  0  0
  5 42  1  0  0  0
 10 43  1  0  0  0
 13 44  1  0  0  0
 14 45  1  0  0  0
 15 46  1  0  0  0
 18 47  1  0  0  0
 19 48  1  0  0  0
 21 49  1  0  0  0
 22 50  1  0  0  0
 23 51  1  0  0  0
 23 52  1  0  0  0
 30 53  1  0  0  0
 32 54  1  0  0  0
 34 55  1  0  0  0
 35 56  1  0  0  0
 35 57  1  0  0  0
 36 58  1  0  0  0
 36 59  1  0  0  0
 39 60  1  0  0  0
 40 61  1  0  0  0
M  END
> <pIC50>
9

$$$$
D1_14
  DSViewer          3D                             0

 46 48  0  0  0  0  0  0  0  0999 V2000
   -0.3578   -2.1654    1.3865 O   0  0
   -0.5516   -1.4778    0.3086 C   0  0
   -1.8768   -0.9456    0.1482 C   0  0
   -2.2248    0.1778   -0.5136 C   0  0
   -3.5693    0.5431   -0.5870 C   0  0
   -4.5948   -0.1913   -0.0141 C   0  0
   -5.9588    0.1427   -0.0556 N   0  0
   -7.1315   -0.4904    0.4900 C   0  0
   -7.8860    0.7951    0.3361 C   0  0
   -6.7778    1.1715   -0.6184 C   0  0
   -4.2263   -1.3674    0.6760 C   0  0
   -2.9020   -1.7003    0.7360 C   0  0
    0.5554   -1.3541   -0.5530 N   0  0
    1.8514   -1.8835   -0.3401 C   0  0
    2.9570   -1.0205    0.0826 C   0  0
    3.0610   -0.2264    1.1887 C   0  0
    1.6728   -0.0087    2.2224 Cl  0  0
    4.2331    0.4611    1.4720 C   0  0
    5.3651    0.3858    0.6553 C   0  0
    6.5323    1.1135    0.9732 N   0  0
    8.0869    0.5249    0.5053 S   0  0
    8.5053   -1.0451    1.2097 C   0  0
    8.1855    0.5224   -1.0134 O   0  0
    9.1615    1.5183    0.9584 O   0  0
    5.2644   -0.3989   -0.4536 C   0  0
    4.1111   -1.0957   -0.7604 C   0  0
   -1.4501    0.7739   -0.9654 H   0  0
   -3.8654    1.4524   -1.1001 H   0  0
   -7.0144   -0.8455    1.5431 H   0  0
   -7.5497   -1.2781   -0.1933 H   0  0
   -8.8746    0.7476   -0.1265 H   0  0
   -7.8170    1.4113    1.2740 H   0  0
   -7.1200    0.9247   -1.6787 H   0  0
   -6.4326    2.2262   -0.4960 H   0  0
   -5.0091   -1.9458    1.1187 H   0  0
   -2.6453   -2.6084    1.2359 H   0  0
    0.3818   -0.8182   -1.4398 H   0  0
    1.8545   -2.7781    0.3901 H   0  0
    2.1375   -2.4126   -1.3150 H   0  0
    4.2684    1.0649    2.3771 H   0  0
    6.4680    1.9927    1.4989 H   0  0
    7.6460   -1.5379    1.7023 H   0  0
    9.3978   -0.9567    1.9109 H   0  0
    8.8299   -1.7308    0.3684 H   0  0
    6.1113   -0.4949   -1.1209 H   0  0
    4.1256   -1.6835   -1.6549 H   0  0
  1  2  2  0  0  0
  2 13  1  0  0  0
  2  3  1  0  0  0
  3  4  2  0  0  0
  4  5  1  0  0  0
  5  6  2  0  0  0
  6 11  1  0  0  0
  6  7  1  0  0  0
  7  8  1  0  0  0
  8  9  1  0  0  0
  9 10  1  0  0  0
 10  7  1  0  0  0
 11 12  2  0  0  0
 12  3  1  0  0  0
 13 14  1  0  0  0
 14 15  1  0  0  0
 15 16  2  0  0  0
 16 18  1  0  0  0
 16 17  1  0  0  0
 18 19  2  0  0  0
 19 25  1  0  0  0
 19 20  1  0  0  0
 20 21  1  0  0  0
 21 24  2  0  0  0
 21 23  2  0  0  0
 21 22  1  0  0  0
 25 26  2  0  0  0
 26 15  1  0  0  0
  4 27  1  0  0  0
  5 28  1  0  0  0
  8 29  1  0  0  0
  8 30  1  0  0  0
  9 31  1  0  0  0
  9 32  1  0  0  0
 10 33  1  0  0  0
 10 34  1  0  0  0
 11 35  1  0  0  0
 12 36  1  0  0  0
 13 37  1  0  0  0
 14 38  1  0  0  0
 14 39  1  0  0  0
 18 40  1  0  0  0
 20 41  1  0  0  0
 22 42  1  0  0  0
 22 43  1  0  0  0
 22 44  1  0  0  0
 25 45  1  0  0  0
 26 46  1  0  0  0
M  END
> <pIC50>
7.027

$$$$
D1_16
  DSViewer          3D                             0

 52 54  0  0  0  0  0  0  0  0999 V2000
    0.0901   -2.1074    1.5342 O   0  0
   -0.3516   -1.5778    0.5147 C   0  0
   -1.7334   -1.0848    0.4283 C   0  0
   -2.8262   -1.7864    0.8218 C   0  0
   -4.1293   -1.2954    0.6207 C   0  0
   -4.3040   -0.0710    0.0125 C   0  0
   -5.5999    0.4149   -0.3016 N   0  0
   -6.4528   -0.5835   -1.0271 C   0  0
   -6.5030    0.0519   -2.4347 C   0  0
   -7.1452    1.3880   -2.3939 C   0  0
   -6.6852    2.3304   -1.3448 C   0  0
   -6.1835    1.6802   -0.0634 C   0  0
   -3.1857    0.6278   -0.3710 C   0  0
   -1.9221    0.1518   -0.1797 C   0  0
    0.5014   -1.4449   -0.6023 N   0  0
    1.8484   -1.8102   -0.8037 C   0  0
    2.8327   -1.2779    0.1705 C   0  0
    2.9764    0.0709    0.3355 C   0  0
    1.8363    1.1416   -0.5050 Cl  0  0
    3.9530    0.5774    1.1269 C   0  0
    4.8415   -0.2464    1.7881 C   0  0
    5.8957    0.2911    2.5713 N   0  0
    7.5201    0.1064    2.0515 S   0  0
    8.0178   -1.6130    1.9274 C   0  0
    8.4457    0.7362    3.1023 O   0  0
    7.7930    0.7946    0.7493 O   0  0
    4.7225   -1.6255    1.6377 C   0  0
    3.7158   -2.1294    0.8305 C   0  0
   -2.7161   -2.7621    1.3088 H   0  0
   -4.9951   -1.8490    0.9393 H   0  0
   -5.9601   -1.5400   -1.1380 H   0  0
   -7.4307   -0.5521   -0.5528 H   0  0
   -7.0564   -0.6322   -3.0795 H   0  0
   -5.4491    0.0968   -2.7998 H   0  0
   -6.9106    1.8795   -3.3836 H   0  0
   -8.2714    1.3003   -2.4308 H   0  0
   -5.8946    3.0476   -1.7181 H   0  0
   -7.5338    2.9802   -1.0391 H   0  0
   -7.0570    1.5872    0.6532 H   0  0
   -5.4640    2.3749    0.4070 H   0  0
   -3.3666    1.6043   -0.8457 H   0  0
   -1.1117    0.7588   -0.5023 H   0  0
    0.0257   -0.9833   -1.4529 H   0  0
    2.2479   -1.5532   -1.8031 H   0  0
    1.9881   -2.9440   -0.7533 H   0  0
    4.0469    1.6569    1.2446 H   0  0
    5.6534    0.7901    3.4535 H   0  0
    7.5829   -2.0860    1.0299 H   0  0
    9.1370   -1.5976    1.7820 H   0  0
    7.7495   -2.1207    2.8650 H   0  0
    5.3924   -2.3148    2.1231 H   0  0
    3.6500   -3.2018    0.7266 H   0  0
  1  2  2  0  0  0
  2 15  1  0  0  0
  2  3  1  0  0  0
  3  4  2  0  0  0
  4  5  1  0  0  0
  5  6  2  0  0  0
  6 13  1  0  0  0
  6  7  1  0  0  0
  7  8  1  0  0  0
  8  9  1  0  0  0
  9 10  1  0  0  0
 10 11  1  0  0  0
 11 12  1  0  0  0
 12  7  1  0  0  0
 13 14  2  0  0  0
 14  3  1  0  0  0
 15 16  1  0  0  0
 16 17  1  0  0  0
 17 18  2  0  0  0
 18 20  1  0  0  0
 18 19  1  0  0  0
 20 21  2  0  0  0
 21 27  1  0  0  0
 21 22  1  0  0  0
 22 23  1  0  0  0
 23 26  2  0  0  0
 23 25  2  0  0  0
 23 24  1  0  0  0
 27 28  2  0  0  0
 28 17  1  0  0  0
  4 29  1  0  0  0
  5 30  1  0  0  0
  8 31  1  0  0  0
  8 32  1  0  0  0
  9 33  1  0  0  0
  9 34  1  0  0  0
 10 35  1  0  0  0
 10 36  1  0  0  0
 11 37  1  0  0  0
 11 38  1  0  0  0
 12 39  1  0  0  0
 12 40  1  0  0  0
 13 41  1  0  0  0
 14 42  1  0  0  0
 15 43  1  0  0  0
 16 44  1  0  0  0
 16 45  1  0  0  0
 20 46  1  0  0  0
 22 47  1  0  0  0
 24 48  1  0  0  0
 24 49  1  0  0  0
 24 50  1  0  0  0
 27 51  1  0  0  0
 28 52  1  0  0  0
M  END
> <pIC50>
7.149

$$$$
D1_17
  DSViewer          3D                             0

 50 52  0  0  0  0  0  0  0  0999 V2000
   -0.3440   -2.2084    1.6246 O   0  0
   -0.5058   -1.5995    0.5090 C   0  0
   -1.8129   -0.9887    0.3019 C   0  0
   -2.7697   -1.7769   -0.2917 C   0  0
   -4.0468   -1.2641   -0.5020 C   0  0
   -4.4307    0.0063   -0.1504 C   0  0
   -5.7284    0.5266   -0.3616 N   0  0
   -6.2123    1.7883    0.1888 C   0  0
   -7.5314    1.5180    0.9314 C   0  0
   -8.3859    0.7387    0.1840 O   0  0
   -7.8562   -0.4868   -0.1949 C   0  0
   -6.7056   -0.1759   -1.1631 C   0  0
   -3.4347    0.7868    0.4513 C   0  0
   -2.1554    0.2813    0.6653 C   0  0
    0.5424   -1.5430   -0.4425 N   0  0
    1.8269   -2.1143   -0.2504 C   0  0
    2.9546   -1.2209    0.0641 C   0  0
    2.9752   -0.1655    0.9296 C   0  0
    1.4850    0.3286    1.7216 Cl  0  0
    4.1117    0.5722    1.2003 C   0  0
    5.3413    0.2834    0.5940 C   0  0
    6.4170    1.0923    0.9550 N   0  0
    7.5475    1.7134   -0.1386 S   0  0
    8.4297    0.4180   -0.9387 C   0  0
    8.5273    2.6352    0.5639 O   0  0
    6.8335    2.5917   -1.1513 O   0  0
    5.3346   -0.7725   -0.2784 C   0  0
    4.2019   -1.4989   -0.5403 C   0  0
   -2.5545   -2.7906   -0.6005 H   0  0
   -4.7749   -1.9279   -0.9727 H   0  0
   -5.5382    2.2828    0.8748 H   0  0
   -6.4927    2.4569   -0.6603 H   0  0
   -7.2288    1.0453    1.8864 H   0  0
   -8.0274    2.4650    1.1767 H   0  0
   -7.4189   -0.9757    0.6693 H   0  0
   -8.6546   -1.0525   -0.6932 H   0  0
   -7.1079    0.5928   -1.8744 H   0  0
   -6.3559   -1.0378   -1.7103 H   0  0
   -3.6422    1.7939    0.7545 H   0  0
   -1.3908    0.9073    1.1386 H   0  0
    0.3846   -1.0479   -1.3694 H   0  0
    2.1214   -2.6645   -1.2065 H   0  0
    1.8268   -2.9466    0.5091 H   0  0
    4.0362    1.4049    1.9087 H   0  0
    6.5123    1.3200    1.9936 H   0  0
    8.5345   -0.4916   -0.3104 H   0  0
    9.4991    0.7522   -1.1465 H   0  0
    7.9683    0.1706   -1.9106 H   0  0
    6.2828   -1.0116   -0.7579 H   0  0
    4.2798   -2.3094   -1.2367 H   0  0
  1  2  2  0  0  0
  2 15  1  0  0  0
  2  3  1  0  0  0
  3  4  2  0  0  0
  4  5  1  0  0  0
  5  6  2  0  0  0
  6 13  1  0  0  0
  6  7  1  0  0  0
  7  8  1  0  0  0
  8  9  1  0  0  0
  9 10  1  0  0  0
 10 11  1  0  0  0
 11 12  1  0  0  0
 12  7  1  0  0  0
 13 14  2  0  0  0
 14  3  1  0  0  0
 15 16  1  0  0  0
 16 17  1  0  0  0
 17 18  2  0  0  0
 18 20  1  0  0  0
 18 19  1  0  0  0
 20 21  2  0  0  0
 21 27  1  0  0  0
 21 22  1  0  0  0
 22 23  1  0  0  0
 23 26  2  0  0  0
 23 25  2  0  0  0
 23 24  1  0  0  0
 27 28  2  0  0  0
 28 17  1  0  0  0
  4 29  1  0  0  0
  5 30  1  0  0  0
  8 31  1  0  0  0
  8 32  1  0  0  0
  9 33  1  0  0  0
  9 34  1  0  0  0
 11 35  1  0  0  0
 11 36  1  0  0  0
 12 37  1  0  0  0
 12 38  1  0  0  0
 13 39  1  0  0  0
 14 40  1  0  0  0
 15 41  1  0  0  0
 16 42  1  0  0  0
 16 43  1  0  0  0
 20 44  1  0  0  0
 22 45  1  0  0  0
 24 46  1  0  0  0
 24 47  1  0  0  0
 24 48  1  0  0  0
 27 49  1  0  0  0
 28 50  1  0  0  0
M  END
> <pIC50>
6.757

$$$$
D4_32
  DSViewer          3D                             0

 44 46  0  0  0  0  0  0  0  0999 V2000
   -0.0232   -1.4724    1.8919 O   0  0
   -0.3818   -1.3603    0.7352 C   0  0
   -1.7634   -0.9459    0.3315 C   0  0
   -2.5385   -1.8870   -0.2950 C   0  0
   -3.7570   -1.5095   -0.7665 C   0  0
   -4.2126   -0.1779   -0.6022 C   0  0
   -5.3543    0.4397   -0.9150 N   0  0
   -5.3516    1.7168   -0.5243 C   0  0
   -4.1240    1.9111    0.0801 C   0  0
   -3.3957    0.7476    0.0450 C   0  0
   -2.1598    0.3496    0.5116 C   0  0
    0.4678   -1.5958   -0.3286 N   0  0
    1.8265   -1.9521   -0.5398 C   0  0
    2.8957   -1.0224   -0.1010 C   0  0
    3.7560   -0.6440   -1.1550 C   0  0
    3.3003   -0.7882   -2.5441 C   0  0
    2.3035    0.2311   -2.7546 F   0  0
    2.8582   -1.9539   -3.0008 F   0  0
    4.3261   -0.3526   -3.3734 F   0  0
    4.9065    0.0258   -0.8322 C   0  0
    5.2030    0.3287    0.5141 C   0  0
    6.3870    1.0759    0.7254 N   0  0
    7.4883    0.8671    2.0090 S   0  0
    7.3775    2.3618    3.0125 C   0  0
    8.8750    0.7152    1.4509 O   0  0
    7.0934   -0.2905    2.8805 O   0  0
    4.3462   -0.0468    1.5195 C   0  0
    3.1607   -0.7427    1.2096 C   0  0
   -2.2300   -2.9317   -0.4612 H   0  0
   -4.4176   -2.1983   -1.2769 H   0  0
   -6.1368   -0.0736   -1.4099 H   0  0
   -6.1508    2.4068   -0.6795 H   0  0
   -3.7971    2.8573    0.5113 H   0  0
   -1.5249    1.1215    1.0019 H   0  0
   -0.0297   -1.4839   -1.3264 H   0  0
    1.9354   -2.7773    0.3952 H   0  0
    2.0587   -2.6595   -1.3189 H   0  0
    5.5865    0.3263   -1.6027 H   0  0
    6.5737    1.8303    0.0014 H   0  0
    6.3604    2.4587    3.3686 H   0  0
    8.1632    2.3130    3.7729 H   0  0
    7.5742    3.2142    2.3232 H   0  0
    4.5471    0.1571    2.5436 H   0  0
    2.5588   -1.0227    2.0444 H   0  0
  1  2  2  0  0  0
  2 12  1  0  0  0
  2  3  1  0  0  0
  3  4  2  0  0  0
  4  5  1  0  0  0
  5  6  2  0  0  0
  6 10  1  0  0  0
  6  7  1  0  0  0
  7  8  1  0  0  0
  8  9  2  0  0  0
 10 11  2  0  0  0
 10  9  1  0  0  0
 11  3  1  0  0  0
 12 13  1  0  0  0
 13 14  1  0  0  0
 14 15  2  0  0  0
 15 20  1  0  0  0
 15 16  1  0  0  0
 16 19  1  0  0  0
 16 18  1  0  0  0
 16 17  1  0  0  0
 20 21  2  0  0  0
 21 27  1  0  0  0
 21 22  1  0  0  0
 22 23  1  0  0  0
 23 26  2  0  0  0
 23 25  2  0  0  0
 23 24  1  0  0  0
 27 28  2  0  0  0
 28 14  1  0  0  0
  4 29  1  0  0  0
  5 30  1  0  0  0
  7 31  1  0  0  0
  8 32  1  0  0  0
  9 33  1  0  0  0
 11 34  1  0  0  0
 12 35  1  0  0  0
 13 36  1  0  0  0
 13 37  1  0  0  0
 20 38  1  0  0  0
 22 39  1  0  0  0
 24 40  1  0  0  0
 24 41  1  0  0  0
 24 42  1  0  0  0
 27 43  1  0  0  0
 28 44  1  0  0  0
M  END
> <pIC50>
7.367

$$$$
D4_27
  DSViewer          3D                             0

 48 51  0  0  0  0  0  0  0  0999 V2000
   -0.4484   -2.8149    1.4124 O   0  0
   -0.5739   -1.8950    0.5253 C   0  0
   -1.9064   -1.2535    0.2953 C   0  0
   -1.9235    0.0935    0.0326 C   0  0
   -3.0608    0.7450   -0.2113 C   0  0
   -4.2704    0.0401   -0.2088 C   0  0
   -5.5302    0.4682   -0.3626 N   0  0
   -6.3782   -0.5667   -0.2219 C   0  0
   -5.5596   -1.6476    0.0276 C   0  0
   -4.2460   -1.2963    0.0463 C   0  0
   -3.0770   -1.9630    0.3035 C   0  0
    0.4986   -1.4736   -0.2618 N   0  0
    1.8393   -1.7753   -0.3726 C   0  0
    2.8689   -0.7889    0.0810 C   0  0
    3.7524   -0.4507   -0.9983 C   0  0
    3.3636   -0.6884   -2.4093 C   0  0
    4.3600   -0.1217   -3.1782 F   0  0
    2.2639    0.2220   -2.6766 F   0  0
    3.1433   -1.8987   -2.8483 F   0  0
    4.8827    0.2304   -0.6869 C   0  0
    5.2185    0.6162    0.6446 C   0  0
    6.5790    1.1348    0.6609 N   0  0
    7.7216   -0.2271    0.5360 S   0  0
    8.9001   -0.2968    1.8525 C   0  0
   10.0471    0.7123    1.6740 C   0  0
    9.0882    0.7893    2.7929 C   0  0
    8.3185   -0.3549   -0.7788 O   0  0
    6.8123   -1.4927    0.7045 O   0  0
    4.3908    0.3125    1.6050 C   0  0
    3.1886   -0.4006    1.3594 C   0  0
   -1.0065    0.5847    0.0127 H   0  0
   -3.0991    1.8162   -0.4002 H   0  0
   -5.8254    1.4502   -0.5274 H   0  0
   -7.4509   -0.5607   -0.2938 H   0  0
   -5.9108   -2.6586    0.1574 H   0  0
   -3.0688   -3.0211    0.4410 H   0  0
    0.1385   -0.6903   -1.0347 H   0  0
    2.1992   -2.4636   -1.1272 H   0  0
    1.9906   -2.5621    0.5365 H   0  0
    5.6067    0.5448   -1.4305 H   0  0
    6.8410    2.1158    0.7711 H   0  0
    9.3318   -1.3043    1.9155 H   0  0
    9.8914    1.3831    0.7772 H   0  0
   11.0634    0.2935    1.7968 H   0  0
    8.4334    1.6987    2.8181 H   0  0
    9.4310    0.4733    3.8160 H   0  0
    4.5780    0.6374    2.6447 H   0  0
    2.5425   -0.6294    2.1890 H   0  0
  1  2  2  0  0  0
  2 12  1  0  0  0
  2  3  1  0  0  0
  3  4  2  0  0  0
  4  5  1  0  0  0
  5  6  2  0  0  0
  6 10  1  0  0  0
  6  7  1  0  0  0
  7  8  1  0  0  0
  8  9  2  0  0  0
 10 11  2  0  0  0
 10  9  1  0  0  0
 11  3  1  0  0  0
 12 13  1  0  0  0
 13 14  1  0  0  0
 14 15  2  0  0  0
 15 20  1  0  0  0
 15 16  1  0  0  0
 16 19  1  0  0  0
 16 18  1  0  0  0
 16 17  1  0  0  0
 20 21  2  0  0  0
 21 29  1  0  0  0
 21 22  1  0  0  0
 22 23  1  0  0  0
 23 28  2  0  0  0
 23 27  2  0  0  0
 23 24  1  0  0  0
 24 25  1  0  0  0
 25 26  1  0  0  0
 26 24  1  0  0  0
 29 30  2  0  0  0
 30 14  1  0  0  0
  4 31  1  0  0  0
  5 32  1  0  0  0
  7 33  1  0  0  0
  8 34  1  0  0  0
  9 35  1  0  0  0
 11 36  1  0  0  0
 12 37  1  0  0  0
 13 38  1  0  0  0
 13 39  1  0  0  0
 20 40  1  0  0  0
 22 41  1  0  0  0
 24 42  1  0  0  0
 25 43  1  0  0  0
 25 44  1  0  0  0
 26 45  1  0  0  0
 26 46  1  0  0  0
 29 47  1  0  0  0
 30 48  1  0  0  0
M  END
> <pIC50>
7.538

$$$$
D1_20
  DSViewer          3D                             0

 47 48  0  0  0  0  0  0  0  0999 V2000
   -0.5746   -3.0271    0.0056 O   0  0
   -0.6775   -1.7399   -0.0648 C   0  0
   -2.0241   -1.2047   -0.1139 C   0  0
   -3.1059   -2.0717   -0.1318 C   0  0
   -4.4055   -1.6206   -0.1024 C   0  0
   -4.7205   -0.2826   -0.0536 C   0  0
   -6.0007    0.2335   -0.0176 O   0  0
   -7.1674   -0.5030   -0.0588 C   0  0
   -8.1422    0.2226   -0.9997 C   0  0
   -7.7790   -0.5597    1.3574 C   0  0
   -3.6340    0.5826   -0.0426 C   0  0
   -2.3179    0.1422   -0.0711 C   0  0
    0.5243   -1.0062   -0.0792 N   0  0
    1.7574   -1.7567    0.0417 C   0  0
    2.9967   -0.9793    0.0690 C   0  0
    3.1106   -0.0127    1.0759 C   0  0
    1.6776    0.4064    2.0280 Cl  0  0
    4.2976    0.6292    1.3064 C   0  0
    5.4511    0.3469    0.5517 C   0  0
    6.6356    0.9872    0.9287 N   0  0
    7.9269    1.3631   -0.1150 S   0  0
    8.6407   -0.0955   -0.7945 C   0  0
    7.4912    2.2356   -1.2825 O   0  0
    8.9850    2.0903    0.6687 O   0  0
    5.3013   -0.5963   -0.4194 C   0  0
    4.1239   -1.2768   -0.7022 C   0  0
   -2.8928   -3.1472   -0.1648 H   0  0
   -5.2356   -2.3244   -0.1207 H   0  0
   -7.0450   -1.5569   -0.3426 H   0  0
   -8.3582   -0.3690   -1.8922 H   0  0
   -7.6670    1.1957   -1.3254 H   0  0
   -9.0449    0.4838   -0.4127 H   0  0
   -8.5180   -1.4133    1.3483 H   0  0
   -8.2570    0.3707    1.6595 H   0  0
   -6.9713   -0.8563    2.0291 H   0  0
   -3.8513    1.6535   -0.0107 H   0  0
   -1.4986    0.8542   -0.0574 H   0  0
    0.4859    0.0200   -0.1755 H   0  0
    1.7250   -2.3663    1.0005 H   0  0
    1.7886   -2.5540   -0.7622 H   0  0
    4.3714    1.3875    2.0762 H   0  0
    6.7036    1.2496    1.9808 H   0  0
    9.7705   -0.0371   -0.7545 H   0  0
    8.3133   -0.2328   -1.8285 H   0  0
    8.3827   -0.9995   -0.1852 H   0  0
    6.1713   -0.8490   -1.0267 H   0  0
    4.0189   -2.0164   -1.4622 H   0  0
  1  2  2  0  0  0
  2 13  1  0  0  0
  2  3  1  0  0  0
  3  4  2  0  0  0
  4  5  1  0  0  0
  5  6  2  0  0  0
  6 11  1  0  0  0
  6  7  1  0  0  0
  7  8  1  0  0  0
  8 10  1  0  0  0
  8  9  1  0  0  0
 11 12  2  0  0  0
 12  3  1  0  0  0
 13 14  1  0  0  0
 14 15  1  0  0  0
 15 16  2  0  0  0
 16 18  1  0  0  0
 16 17  1  0  0  0
 18 19  2  0  0  0
 19 25  1  0  0  0
 19 20  1  0  0  0
 20 21  1  0  0  0
 21 24  2  0  0  0
 21 23  2  0  0  0
 21 22  1  0  0  0
 25 26  2  0  0  0
 26 15  1  0  0  0
  4 27  1  0  0  0
  5 28  1  0  0  0
  8 29  1  0  0  0
  9 30  1  0  0  0
  9 31  1  0  0  0
  9 32  1  0  0  0
 10 33  1  0  0  0
 10 34  1  0  0  0
 10 35  1  0  0  0
 11 36  1  0  0  0
 12 37  1  0  0  0
 13 38  1  0  0  0
 14 39  1  0  0  0
 14 40  1  0  0  0
 18 41  1  0  0  0
 20 42  1  0  0  0
 22 43  1  0  0  0
 22 44  1  0  0  0
 22 45  1  0  0  0
 25 46  1  0  0  0
 26 47  1  0  0  0
M  END
> <pIC50>
7.921

$$$$
D1_18
  DSViewer          3D                             0

 41 42  0  0  0  0  0  0  0  0999 V2000
    0.1369   -1.7387   -1.8816 O   0  0
   -0.2547   -1.5786   -0.6978 C   0  0
   -1.6400   -1.0993   -0.3974 C   0  0
   -2.7189   -1.9390   -0.2940 C   0  0
   -3.9648   -1.4423    0.0701 C   0  0
   -4.1341   -0.1277    0.3262 C   0  0
   -5.3920    0.3868    0.7013 O   0  0
   -6.3102    0.8376   -0.2684 C   0  0
   -5.7021    1.8413   -1.0358 F   0  0
   -6.6142   -0.1961   -1.1156 F   0  0
   -7.4602    1.3329    0.3070 F   0  0
   -3.0392    0.7282    0.2172 C   0  0
   -1.8050    0.2486   -0.1412 C   0  0
    0.5394   -1.8186    0.4510 N   0  0
    1.8679   -2.1922    0.5654 C   0  0
    2.9211   -1.1787    0.4054 C   0  0
    3.0308   -0.1374    1.3123 C   0  0
    1.6670    0.0917    2.3975 Cl  0  0
    4.0893    0.6996    1.3758 C   0  0
    5.1639    0.5361    0.4941 C   0  0
    6.2741    1.4009    0.5979 N   0  0
    7.8411    0.7799    0.9222 S   0  0
    7.8620   -0.0418    2.5015 C   0  0
    8.2896   -0.2159   -0.1276 O   0  0
    8.8533    1.9275    0.8787 O   0  0
    5.0825   -0.4926   -0.4193 C   0  0
    3.9733   -1.3547   -0.4876 C   0  0
   -2.6004   -2.9823   -0.5008 H   0  0
   -4.8030   -2.1089    0.1531 H   0  0
   -3.2540    1.7704    0.4098 H   0  0
   -0.9513    0.9194   -0.2216 H   0  0
    0.0323   -1.6631    1.4122 H   0  0
    2.1164   -2.9266   -0.3376 H   0  0
    2.0797   -2.8499    1.4092 H   0  0
    4.2157    1.5322    2.0796 H   0  0
    6.1209    2.4352    0.4645 H   0  0
    6.8455   -0.3755    2.7508 H   0  0
    8.5627   -0.9014    2.4992 H   0  0
    8.1665    0.7370    3.2435 H   0  0
    5.8997   -0.6743   -1.1182 H   0  0
    4.0002   -2.1290   -1.2296 H   0  0
  1  2  2  0  0  0
  2 14  1  0  0  0
  2  3  1  0  0  0
  3  4  2  0  0  0
  4  5  1  0  0  0
  5  6  2  0  0  0
  6 12  1  0  0  0
  6  7  1  0  0  0
  7  8  1  0  0  0
  8 11  1  0  0  0
  8 10  1  0  0  0
  8  9  1  0  0  0
 12 13  2  0  0  0
 13  3  1  0  0  0
 14 15  1  0  0  0
 15 16  1  0  0  0
 16 17  2  0  0  0
 17 19  1  0  0  0
 17 18  1  0  0  0
 19 20  2  0  0  0
 20 26  1  0  0  0
 20 21  1  0  0  0
 21 22  1  0  0  0
 22 25  2  0  0  0
 22 24  2  0  0  0
 22 23  1  0  0  0
 26 27  2  0  0  0
 27 16  1  0  0  0
  4 28  1  0  0  0
  5 29  1  0  0  0
 12 30  1  0  0  0
 13 31  1  0  0  0
 14 32  1  0  0  0
 15 33  1  0  0  0
 15 34  1  0  0  0
 19 35  1  0  0  0
 21 36  1  0  0  0
 23 37  1  0  0  0
 23 38  1  0  0  0
 23 39  1  0  0  0
 26 40  1  0  0  0
 27 41  1  0  0  0
M  END
> <pIC50>
7.658

$$$$
D1_13
  DSViewer          3D                             0

 41 42  0  0  0  0  0  0  0  0999 V2000
    0.4609   -0.5511    1.5101 O   0  0
   -0.1037   -1.0112    0.5561 C   0  0
   -1.5705   -0.6957    0.3383 C   0  0
   -1.9640    0.6211    0.5807 C   0  0
   -3.3110    0.9578    0.3568 C   0  0
   -4.2014   -0.0245   -0.1087 C   0  0
   -5.5128    0.3862   -0.3227 O   0  0
   -6.4618   -0.5791   -0.7523 C   0  0
   -3.7741   -1.2561   -0.3304 C   0  0
   -2.4377   -1.6329   -0.1056 C   0  0
    0.4921   -1.8442   -0.4036 N   0  0
    1.8422   -2.3290   -0.5274 C   0  0
    2.8786   -1.3534   -0.1354 C   0  0
    3.7082   -0.8505   -1.1331 C   0  0
    3.3474   -1.2955   -2.8051 Cl  0  0
    4.7457   -0.0326   -0.8081 C   0  0
    5.0361    0.3408    0.5066 C   0  0
    6.0963    1.2397    0.7649 N   0  0
    7.5950    1.3887    0.0357 S   0  0
    8.6891    0.0074    0.1381 C   0  0
    7.4861    1.8571   -1.4102 O   0  0
    8.3476    2.5500    0.7218 O   0  0
    4.2027   -0.1773    1.4764 C   0  0
    3.1425   -1.0137    1.1356 C   0  0
   -1.2863    1.3769    0.9285 H   0  0
   -3.7288    1.9243    0.5442 H   0  0
   -6.6883   -1.1291    0.2437 H   0  0
   -7.4154   -0.1105   -1.1026 H   0  0
   -6.0274   -1.3127   -1.4469 H   0  0
   -4.4162   -2.0610   -0.7093 H   0  0
   -2.0826   -2.6362   -0.2597 H   0  0
   -0.2334   -2.1957   -1.1579 H   0  0
    1.9839   -2.6176   -1.5973 H   0  0
    2.0214   -3.2978    0.0174 H   0  0
    5.3555    0.3471   -1.5943 H   0  0
    5.8712    1.9372    1.5710 H   0  0
    9.3347    0.0392   -0.7765 H   0  0
    8.1885   -0.9749    0.1545 H   0  0
    9.3859    0.0459    1.0171 H   0  0
    4.4037    0.0554    2.5068 H   0  0
    2.5827   -1.4009    1.9716 H   0  0
  1  2  2  0  0  0
  2 11  1  0  0  0
  2  3  1  0  0  0
  3  4  2  0  0  0
  4  5  1  0  0  0
  5  6  2  0  0  0
  6  9  1  0  0  0
  6  7  1  0  0  0
  7  8  1  0  0  0
  9 10  2  0  0  0
 10  3  1  0  0  0
 11 12  1  0  0  0
 12 13  1  0  0  0
 13 14  2  0  0  0
 14 16  1  0  0  0
 14 15  1  0  0  0
 16 17  2  0  0  0
 17 23  1  0  0  0
 17 18  1  0  0  0
 18 19  1  0  0  0
 19 22  2  0  0  0
 19 21  2  0  0  0
 19 20  1  0  0  0
 23 24  2  0  0  0
 24 13  1  0  0  0
  4 25  1  0  0  0
  5 26  1  0  0  0
  8 27  1  0  0  0
  8 28  1  0  0  0
  8 29  1  0  0  0
  9 30  1  0  0  0
 10 31  1  0  0  0
 11 32  1  0  0  0
 12 33  1  0  0  0
 12 34  1  0  0  0
 16 35  1  0  0  0
 18 36  1  0  0  0
 20 37  1  0  0  0
 20 38  1  0  0  0
 20 39  1  0  0  0
 23 40  1  0  0  0
 24 41  1  0  0  0
M  END
> <pIC50>
7.42

$$$$
D1_19
  DSViewer          3D                             0

 44 45  0  0  0  0  0  0  0  0999 V2000
   -0.6163   -3.0371   -1.2872 O   0  0
   -0.7199   -1.9157   -0.7190 C   0  0
   -1.9709   -1.2821   -0.4233 C   0  0
   -2.0517    0.0477   -0.1317 C   0  0
   -3.2940    0.6313    0.1593 C   0  0
   -4.4653   -0.0967    0.1635 C   0  0
   -5.6733    0.5196    0.4571 O   0  0
   -6.9121   -0.1583    0.4767 C   0  0
   -7.2738   -0.7726   -0.8523 C   0  0
   -4.3599   -1.4395   -0.1344 C   0  0
   -3.1262   -2.0322   -0.4260 C   0  0
    0.5102   -1.2397   -0.3477 N   0  0
    1.7626   -1.8378   -0.6275 C   0  0
    2.9265   -1.0674   -0.2108 C   0  0
    4.2123   -1.5683   -0.4397 C   0  0
    4.3458   -3.1176   -1.2264 Cl  0  0
    5.3231   -0.8671   -0.0599 C   0  0
    5.2813    0.3593    0.5637 C   0  0
    6.4099    1.1040    0.9721 N   0  0
    7.7797    1.4098    0.0053 S   0  0
    8.6141   -0.0846   -0.4516 C   0  0
    7.3706    2.1525   -1.2607 O   0  0
    8.7494    2.3391    0.7015 O   0  0
    3.9993    0.8558    0.7908 C   0  0
    2.8726    0.1468    0.4068 C   0  0
   -1.2073    0.7364   -0.1056 H   0  0
   -3.3606    1.6764    0.3891 H   0  0
   -6.8125   -0.9958    1.2306 H   0  0
   -7.7163    0.5020    0.8676 H   0  0
   -7.5606   -1.8312   -0.7615 H   0  0
   -6.4696   -0.5892   -1.6125 H   0  0
   -8.1972   -0.2229   -1.2043 H   0  0
   -5.2637   -2.0262   -0.1336 H   0  0
   -3.1164   -3.0943   -0.6518 H   0  0
    0.4208   -0.3328    0.1197 H   0  0
    1.8259   -1.9225   -1.7634 H   0  0
    1.8254   -2.8947   -0.2554 H   0  0
    6.3223   -1.2750   -0.2405 H   0  0
    6.3947    1.4959    1.9491 H   0  0
    9.7124    0.1191   -0.6238 H   0  0
    8.1816   -0.4422   -1.4016 H   0  0
    8.5344   -0.8080    0.3814 H   0  0
    3.9125    1.8124    1.2764 H   0  0
    1.8909    0.6165    0.6260 H   0  0
  1  2  2  0  0  0
  2 12  1  0  0  0
  2  3  1  0  0  0
  3  4  2  0  0  0
  4  5  1  0  0  0
  5  6  2  0  0  0
  6 10  1  0  0  0
  6  7  1  0  0  0
  7  8  1  0  0  0
  8  9  1  0  0  0
 10 11  2  0  0  0
 11  3  1  0  0  0
 12 13  1  0  0  0
 13 14  1  0  0  0
 14 15  2  0  0  0
 15 17  1  0  0  0
 15 16  1  0  0  0
 17 18  2  0  0  0
 18 24  1  0  0  0
 18 19  1  0  0  0
 19 20  1  0  0  0
 20 23  2  0  0  0
 20 22  2  0  0  0
 20 21  1  0  0  0
 24 25  2  0  0  0
 25 14  1  0  0  0
  4 26  1  0  0  0
  5 27  1  0  0  0
  8 28  1  0  0  0
  8 29  1  0  0  0
  9 30  1  0  0  0
  9 31  1  0  0  0
  9 32  1  0  0  0
 10 33  1  0  0  0
 11 34  1  0  0  0
 12 35  1  0  0  0
 13 36  1  0  0  0
 13 37  1  0  0  0
 17 38  1  0  0  0
 19 39  1  0  0  0
 21 40  1  0  0  0
 21 41  1  0  0  0
 21 42  1  0  0  0
 24 43  1  0  0  0
 25 44  1  0  0  0
M  END
> <pIC50>
7.509

$$$$
D4_23
  DSViewer          3D                             0

 63 66  0  0  0  0  0  0  0  0999 V2000
    0.4259   -1.1515    1.6887 O   0  0
   -0.1587   -1.1617    0.6326 C   0  0
   -1.6270   -0.8511    0.5388 C   0  0
   -1.9742    0.4032    0.0962 C   0  0
   -3.2671    0.7206   -0.1993 C   0  0
   -4.2765   -0.2131   -0.0608 C   0  0
   -3.9248   -1.4496    0.3860 C   0  0
   -5.1061   -2.1669    0.4290 C   0  0
   -6.1622   -1.3545    0.0049 C   0  0
   -7.5713   -1.8375   -0.0496 C   0  0
   -5.6330   -0.1746   -0.2954 N   0  0
   -6.4222    1.1820   -0.9497 S   0  0
   -7.6628    1.9523   -0.0424 C   0  0
   -7.0558    2.8376    1.0745 C   0  0
   -8.8053    1.1651    0.4452 C   0  0
   -7.0372    0.7262   -2.3135 O   0  0
   -5.4407    2.2579   -1.4125 O   0  0
   -2.5977   -1.7974    0.6933 C   0  0
    0.4422   -1.4411   -0.6168 N   0  0
    1.7662   -1.7351   -0.9621 C   0  0
    2.7911   -0.8750   -0.3967 C   0  0
    3.4473    0.0098   -1.2499 C   0  0
    3.0636    0.2123   -2.6653 C   0  0
    1.6910    0.5897   -2.7030 F   0  0
    3.7263    1.2982   -3.1589 F   0  0
    3.2486   -0.8642   -3.4668 F   0  0
    4.5189    0.7094   -0.7504 C   0  0
    4.9855    0.5854    0.5403 C   0  0
    6.1670    1.2430    1.0095 N   0  0
    7.6182    0.2804    0.9083 S   0  0
    7.8801   -0.0848   -0.8316 C   0  0
    9.0033    0.5919   -1.5066 C   0  0
    9.1867   -0.8484   -1.1279 C   0  0
    7.3453   -1.0577    1.5682 O   0  0
    8.7853    0.9667    1.4736 O   0  0
    4.3325   -0.3010    1.3979 C   0  0
    3.2587   -1.0048    0.9100 C   0  0
   -1.2098    1.1775    0.0030 H   0  0
   -3.5416    1.7254   -0.5285 H   0  0
   -5.1667   -3.1930    0.7337 H   0  0
   -8.0803   -1.4434   -0.9211 H   0  0
   -8.1078   -1.6016    0.8892 H   0  0
   -7.5975   -2.9565   -0.1459 H   0  0
   -8.0987    2.7647   -0.7196 H   0  0
   -7.8975    3.3924    1.5137 H   0  0
   -6.3442    3.5291    0.6035 H   0  0
   -6.5651    2.2183    1.8515 H   0  0
   -8.6614    0.6301    1.4115 H   0  0
   -9.2174    0.5660   -0.3656 H   0  0
   -9.6167    1.9211    0.6927 H   0  0
   -2.4018   -2.7714    1.0295 H   0  0
   -0.2656   -1.4314   -1.4932 H   0  0
    1.9673   -2.7697   -0.4587 H   0  0
    1.9233   -1.9826   -2.0247 H   0  0
    5.0728    1.4391   -1.3814 H   0  0
    6.1703    2.1914    1.3508 H   0  0
    7.0483   -0.5342   -1.4077 H   0  0
    8.9769    0.8582   -2.6019 H   0  0
    9.5461    1.3226   -0.8993 H   0  0
    9.7920   -1.0952   -0.2458 H   0  0
    9.1450   -1.6414   -1.9274 H   0  0
    4.6631   -0.4264    2.4350 H   0  0
    2.8092   -1.7341    1.5806 H   0  0
  1  2  2  0  0  0
  2 19  1  0  0  0
  2  3  1  0  0  0
  3  4  2  0  0  0
  4  5  1  0  0  0
  5  6  2  0  0  0
  6  7  1  0  0  0
  7 18  2  0  0  0
  7  8  1  0  0  0
  8  9  2  0  0  0
  9 11  1  0  0  0
  9 10  1  0  0  0
 11 12  1  0  0  0
 11  6  1  0  0  0
 12 17  2  0  0  0
 12 16  2  0  0  0
 12 13  1  0  0  0
 13 15  1  0  0  0
 13 14  1  0  0  0
 18  3  1  0  0  0
 19 20  1  0  0  0
 20 21  1  0  0  0
 21 22  2  0  0  0
 22 27  1  0  0  0
 22 23  1  0  0  0
 23 26  1  0  0  0
 23 25  1  0  0  0
 23 24  1  0  0  0
 27 28  2  0  0  0
 28 36  1  0  0  0
 28 29  1  0  0  0
 29 30  1  0  0  0
 30 35  2  0  0  0
 30 34  2  0  0  0
 30 31  1  0  0  0
 31 32  1  0  0  0
 32 33  1  0  0  0
 33 31  1  0  0  0
 36 37  2  0  0  0
 37 21  1  0  0  0
  4 38  1  0  0  0
  5 39  1  0  0  0
  8 40  1  0  0  0
 10 41  1  0  0  0
 10 42  1  0  0  0
 10 43  1  0  0  0
 13 44  1  0  0  0
 14 45  1  0  0  0
 14 46  1  0  0  0
 14 47  1  0  0  0
 15 48  1  0  0  0
 15 49  1  0  0  0
 15 50  1  0  0  0
 18 51  1  0  0  0
 19 52  1  0  0  0
 20 53  1  0  0  0
 20 54  1  0  0  0
 27 55  1  0  0  0
 29 56  1  0  0  0
 31 57  1  0  0  0
 32 58  1  0  0  0
 32 59  1  0  0  0
 33 60  1  0  0  0
 33 61  1  0  0  0
 36 62  1  0  0  0
 37 63  1  0  0  0
M  END
> <pIC50>
7.886

$$$$
D4_01
  DSViewer          3D                             0

 60 63  0  0  0  0  0  0  0  0999 V2000
    0.3581   -1.1159    1.7144 O   0  0
   -0.1747   -1.2415    0.6794 C   0  0
   -1.5183   -0.7930    0.2798 C   0  0
   -2.4481   -1.7143   -0.1242 C   0  0
   -3.7485   -1.3704   -0.4467 C   0  0
   -4.1070   -0.0046   -0.3501 C   0  0
   -3.1879    0.9329    0.0441 C   0  0
   -3.8773    2.1364    0.0695 C   0  0
   -5.1827    1.8754   -0.2931 C   0  0
   -5.3120    0.5415   -0.5434 N   0  0
   -6.7213   -0.3362   -0.9967 S   0  0
   -6.6815   -1.1097   -2.5574 C   0  0
   -7.7644   -0.3500   -3.4350 C   0  0
   -5.4424   -1.0548   -3.3438 C   0  0
   -6.9360   -1.4603    0.0594 O   0  0
   -7.9167    0.5319   -0.8378 O   0  0
   -1.9084    0.5373    0.3529 C   0  0
    0.5584   -1.8906   -0.4285 N   0  0
    1.8767   -2.3889   -0.4014 C   0  0
    2.9368   -1.4166   -0.0505 C   0  0
    3.8122   -1.0377   -1.0818 C   0  0
    3.6804   -1.5178   -2.4586 C   0  0
    2.5100   -1.0337   -3.0628 F   0  0
    4.6923   -0.8710   -3.1848 F   0  0
    3.8118   -2.8558   -2.6555 F   0  0
    4.8238   -0.1400   -0.7137 C   0  0
    4.9939    0.3567    0.5508 C   0  0
    5.9778    1.3485    0.8275 N   0  0
    7.5818    1.3917    0.2667 S   0  0
    8.7999    1.3863    1.5475 C   0  0
    9.3017    0.1175    2.1124 C   0  0
   10.1495    0.8936    1.1367 C   0  0
    7.8467    0.1938   -0.6264 O   0  0
    7.7430    2.6746   -0.5425 O   0  0
    4.1197   -0.0641    1.4886 C   0  0
    3.0632   -0.9536    1.2359 C   0  0
   -2.1494   -2.7512   -0.2022 H   0  0
   -4.4326   -2.1393   -0.7676 H   0  0
   -3.4335    3.0940    0.3231 H   0  0
   -5.9848    2.5841   -0.3823 H   0  0
   -7.1710   -2.1263   -2.5407 H   0  0
   -7.2475    0.5746   -3.6961 H   0  0
   -8.6577   -0.2034   -2.7773 H   0  0
   -7.9583   -1.0225   -4.2769 H   0  0
   -4.7326   -0.2272   -3.0904 H   0  0
   -4.9012   -2.0374   -3.3719 H   0  0
   -5.6679   -0.8704   -4.4445 H   0  0
   -1.1705    1.2773    0.6613 H   0  0
   -0.0040   -1.9845   -1.3194 H   0  0
    1.9024   -3.1290    0.5305 H   0  0
    2.1588   -3.0668   -1.1940 H   0  0
    5.5338    0.1715   -1.5004 H   0  0
    5.6409    2.1302    1.4376 H   0  0
    8.7772    2.2580    2.2612 H   0  0
    8.8635   -0.8177    1.7502 H   0  0
    9.6507    0.0747    3.1875 H   0  0
   10.2584    0.4792    0.0936 H   0  0
   11.0372    1.4532    1.4651 H   0  0
    4.2353    0.2801    2.5482 H   0  0
    2.4856   -1.2604    2.0793 H   0  0
  1  2  2  0  0  0
  2 18  1  0  0  0
  2  3  1  0  0  0
  3  4  2  0  0  0
  4  5  1  0  0  0
  5  6  2  0  0  0
  6  7  1  0  0  0
  7 17  2  0  0  0
  7  8  1  0  0  0
  8  9  2  0  0  0
  9 10  1  0  0  0
 10 11  1  0  0  0
 10  6  1  0  0  0
 11 16  2  0  0  0
 11 15  2  0  0  0
 11 12  1  0  0  0
 12 14  1  0  0  0
 12 13  1  0  0  0
 17  3  1  0  0  0
 18 19  1  0  0  0
 19 20  1  0  0  0
 20 21  2  0  0  0
 21 26  1  0  0  0
 21 22  1  0  0  0
 22 25  1  0  0  0
 22 24  1  0  0  0
 22 23  1  0  0  0
 26 27  2  0  0  0
 27 35  1  0  0  0
 27 28  1  0  0  0
 28 29  1  0  0  0
 29 34  2  0  0  0
 29 33  2  0  0  0
 29 30  1  0  0  0
 30 31  1  0  0  0
 31 32  1  0  0  0
 32 30  1  0  0  0
 35 36  2  0  0  0
 36 20  1  0  0  0
  4 37  1  0  0  0
  5 38  1  0  0  0
  8 39  1  0  0  0
  9 40  1  0  0  0
 12 41  1  0  0  0
 13 42  1  0  0  0
 13 43  1  0  0  0
 13 44  1  0  0  0
 14 45  1  0  0  0
 14 46  1  0  0  0
 14 47  1  0  0  0
 17 48  1  0  0  0
 18 49  1  0  0  0
 19 50  1  0  0  0
 19 51  1  0  0  0
 26 52  1  0  0  0
 28 53  1  0  0  0
 30 54  1  0  0  0
 31 55  1  0  0  0
 31 56  1  0  0  0
 32 57  1  0  0  0
 32 58  1  0  0  0
 35 59  1  0  0  0
 36 60  1  0  0  0
M  END
> <pIC50>
9

$$$$
D3_34
  DSViewer          3D                             0

 44 45  0  0  0  0  0  0  0  0999 V2000
   -0.7701   -2.5627    1.3917 O   0  0
   -0.7396   -1.7532    0.4769 C   0  0
    0.5299   -1.0143    0.1437 C   0  0
    0.2707    0.3864    0.0081 C   0  0
    1.3084    1.1645   -0.4117 C   0  0
    2.5085    0.6287   -0.6771 C   0  0
    2.7911   -0.7434   -0.5430 C   0  0
    4.0995   -1.2496   -0.8454 C   0  0
    5.2592   -0.6882   -0.4432 C   0  0
    5.3213    0.3868    0.4938 C   0  0
    4.2280    0.8822    1.1626 O   0  5
    6.4195    0.9828    0.8117 O   0  0
    6.5022   -1.3879   -0.9199 C   0  0
    7.6801   -1.1908   -0.0072 C   0  0
    1.7399   -1.5305   -0.1202 C   0  0
   -1.8394   -1.4099   -0.3121 N   0  0
   -3.2168   -1.7435   -0.2992 C   0  0
   -3.8262   -1.0509    0.8770 C   0  0
   -3.6635   -1.3668    2.1748 C   0  0
   -4.2299   -0.7112    3.2628 C   0  0
   -5.0443    0.3895    2.9556 C   0  0
   -5.2073    0.7071    1.6625 C   0  0
   -4.6638    0.0696    0.5701 C   0  0
   -4.8655    0.4836   -0.8003 C   0  0
   -3.6936    0.8097   -1.4630 F   0  0
   -5.6142   -0.4562   -1.4823 F   0  0
   -5.6547    1.6496   -0.8159 F   0  0
   -0.7169    0.7362    0.2477 H   0  0
    1.1083    2.2326   -0.5155 H   0  0
    3.2789    1.2866   -1.0646 H   0  0
    4.2306   -2.1774   -1.4593 H   0  0
    6.2584   -2.5023   -0.8222 H   0  0
    6.6996   -1.2310   -1.9698 H   0  0
    8.2282   -0.2486   -0.2360 H   0  0
    7.3978   -1.2682    1.0522 H   0  0
    8.3856   -2.0251   -0.1830 H   0  0
    1.9308   -2.6220    0.0057 H   0  0
   -1.5331   -0.7198   -1.1277 H   0  0
   -3.7035   -1.5729   -1.2324 H   0  0
   -3.3019   -2.8555   -0.1099 H   0  0
   -3.0746   -2.2283    2.4589 H   0  0
   -4.0704   -0.9767    4.2660 H   0  0
   -5.5077    0.9490    3.7375 H   0  0
   -5.8382    1.6032    1.4404 H   0  0
  1  2  2  0  0  0
  2 16  1  0  0  0
  2  3  1  0  0  0
  3  4  2  0  0  0
  4  5  1  0  0  0
  5  6  2  0  0  0
  6  7  1  0  0  0
  7 15  2  0  0  0
  7  8  1  0  0  0
  8  9  2  0  0  0
  9 13  1  0  0  0
  9 10  1  0  0  0
 10 12  2  0  0  0
 10 11  1  0  0  0
 13 14  1  0  0  0
 15  3  1  0  0  0
 16 17  1  0  0  0
 17 18  1  0  0  0
 18 19  2  0  0  0
 19 20  1  0  0  0
 20 21  2  0  0  0
 21 22  1  0  0  0
 22 23  2  0  0  0
 23 24  1  0  0  0
 23 18  1  0  0  0
 24 27  1  0  0  0
 24 26  1  0  0  0
 24 25  1  0  0  0
  4 28  1  0  0  0
  5 29  1  0  0  0
  6 30  1  0  0  0
  8 31  1  0  0  0
 13 32  1  0  0  0
 13 33  1  0  0  0
 14 34  1  0  0  0
 14 35  1  0  0  0
 14 36  1  0  0  0
 15 37  1  0  0  0
 16 38  1  0  0  0
 17 39  1  0  0  0
 17 40  1  0  0  0
 19 41  1  0  0  0
 20 42  1  0  0  0
 21 43  1  0  0  0
 22 44  1  0  0  0
M  CHG  1  11  -1
M  END
> <pIC50>
6.398

$$$$
D3_02
  DSViewer          3D                             0

 51 52  0  0  0  0  0  0  0  0999 V2000
    1.6226   -2.2176   -1.1884 O   0  0
    1.6808   -1.3443   -0.2867 C   0  0
    0.5007   -0.9580    0.4895 C   0  0
    0.4982   -0.0055    1.4705 C   0  0
   -0.6713    0.3097    2.1714 C   0  0
   -1.8592   -0.3255    1.9001 C   0  0
   -1.8708   -1.2895    0.9105 C   0  0
   -3.1109   -1.9632    0.5843 C   0  0
   -4.2054   -1.3963    0.1755 C   0  0
   -4.2839    0.0227   -0.0947 C   0  0
   -5.4770    0.6225   -0.5068 O   0  0
   -5.5570    2.0116   -0.7723 C   0  0
   -5.2135    2.8560    0.4236 C   0  0
   -3.3146    0.7945    0.0182 O   0  0
   -5.4176   -2.2703   -0.1102 C   0  0
   -6.5401   -1.8494    0.7775 C   0  0
   -0.6907   -1.5955    0.2164 C   0  0
    2.9661   -0.7500   -0.0629 N   0  0
    4.1033   -1.1594   -0.8499 C   0  0
    5.3214   -0.4532   -0.4842 C   0  0
    5.4080    0.4948    0.5013 C   0  0
    6.6119    1.1321    0.8025 C   0  0
    7.7453    0.8159    0.1072 C   0  0
    7.6764   -0.1379   -0.8902 C   0  0
    6.4837   -0.7705   -1.1899 C   0  0
    6.4063   -1.7880   -2.2570 C   0  0
    5.6318   -1.3650   -3.3461 F   0  0
    6.0703   -3.0402   -1.8217 F   0  0
    7.6920   -1.9349   -2.8234 F   0  0
    1.4166    0.5095    1.7048 H   0  0
   -0.6394    1.0755    2.9494 H   0  0
   -2.7623   -0.0801    2.4673 H   0  0
   -3.1244   -3.0615    0.6942 H   0  0
   -4.8602    2.3166   -1.6028 H   0  0
   -6.6080    2.2075   -1.0517 H   0  0
   -5.4379    2.3497    1.3842 H   0  0
   -5.8003    3.8141    0.4526 H   0  0
   -4.1387    3.1942    0.4144 H   0  0
   -5.1715   -3.3301    0.0978 H   0  0
   -5.7375   -2.1498   -1.1664 H   0  0
   -7.1174   -2.7489    1.0738 H   0  0
   -7.2376   -1.1460    0.2470 H   0  0
   -6.1870   -1.3800    1.7366 H   0  0
   -0.7493   -2.3612   -0.5528 H   0  0
    3.0233   -0.0364    0.6704 H   0  0
    3.8743   -1.0889   -1.9483 H   0  0
    4.3072   -2.2586   -0.6624 H   0  0
    4.5808    0.8156    1.1053 H   0  0
    6.6524    1.8698    1.5778 H   0  0
    8.7151    1.2876    0.3054 H   0  0
    8.5689   -0.3928   -1.4441 H   0  0
  1  2  2  0  0  0
  2 18  1  0  0  0
  2  3  1  0  0  0
  3  4  2  0  0  0
  4  5  1  0  0  0
  5  6  2  0  0  0
  6  7  1  0  0  0
  7 17  2  0  0  0
  7  8  1  0  0  0
  8  9  2  0  0  0
  9 15  1  0  0  0
  9 10  1  0  0  0
 10 14  2  0  0  0
 10 11  1  0  0  0
 11 12  1  0  0  0
 12 13  1  0  0  0
 15 16  1  0  0  0
 17  3  1  0  0  0
 18 19  1  0  0  0
 19 20  1  0  0  0
 20 21  2  0  0  0
 21 22  1  0  0  0
 22 23  2  0  0  0
 23 24  1  0  0  0
 24 25  2  0  0  0
 25 26  1  0  0  0
 25 20  1  0  0  0
 26 29  1  0  0  0
 26 28  1  0  0  0
 26 27  1  0  0  0
  4 30  1  0  0  0
  5 31  1  0  0  0
  6 32  1  0  0  0
  8 33  1  0  0  0
 12 34  1  0  0  0
 12 35  1  0  0  0
 13 36  1  0  0  0
 13 37  1  0  0  0
 13 38  1  0  0  0
 15 39  1  0  0  0
 15 40  1  0  0  0
 16 41  1  0  0  0
 16 42  1  0  0  0
 16 43  1  0  0  0
 17 44  1  0  0  0
 18 45  1  0  0  0
 19 46  1  0  0  0
 19 47  1  0  0  0
 21 48  1  0  0  0
 22 49  1  0  0  0
 23 50  1  0  0  0
 24 51  1  0  0  0
M  END
> <pIC50>
7.398

$$$$
D2_27
  DSViewer          3D                             0

 51 52  0  0  0  0  0  0  0  0999 V2000
    6.1626    1.8031    2.0083 O   0  0
    6.3183    1.1336    0.8993 C   0  0
    7.5015    1.3338    0.2400 N   0  0
    7.9289    0.8121   -1.0086 C   0  0
    8.4800    2.2612    0.8968 C   0  0
    5.2056    0.2944    0.5562 C   0  0
    4.0101    0.3688    1.2934 C   0  0
    2.9214   -0.4270    1.0402 C   0  0
    2.9389   -1.3626    0.0294 C   0  0
    1.8609   -2.2675   -0.3538 C   0  0
    0.5428   -1.7507   -0.4187 N   0  0
   -0.3916   -1.5727    0.6200 C   0  0
   -1.7318   -0.9959    0.3564 C   0  0
   -2.8132   -1.7989    0.0615 C   0  0
   -4.0530   -1.2498   -0.1914 C   0  0
   -4.2330    0.1138   -0.1533 C   0  0
   -5.5858    0.6492   -0.4358 C   0  0
   -6.5079    0.2243    0.6733 C   0  0
   -6.0974    0.0687   -1.7460 C   0  0
   -5.5785    2.1568   -0.5687 C   0  0
   -3.1415    0.8991    0.1433 C   0  0
   -1.8797    0.3730    0.4022 C   0  0
   -0.0805   -1.9088    1.7844 O   0  0
    4.1273   -1.4231   -0.6876 C   0  0
    5.2249   -0.6289   -0.4406 C   0  0
    8.8606    1.3937   -1.3591 H   0  0
    8.2105   -0.2395   -0.9071 H   0  0
    7.1744    0.9312   -1.8066 H   0  0
    9.4660    2.0823    0.4740 H   0  0
    8.4790    2.0748    1.9988 H   0  0
    8.0952    3.2740    0.6646 H   0  0
    3.9573    1.1022    2.1020 H   0  0
    2.0051   -0.3358    1.6363 H   0  0
    1.9405   -3.1499    0.3581 H   0  0
    2.1318   -2.7478   -1.3421 H   0  0
    0.1852   -1.4470   -1.3853 H   0  0
   -2.6652   -2.8715    0.0348 H   0  0
   -4.8913   -1.9132   -0.4250 H   0  0
   -6.0499    0.4437    1.6680 H   0  0
   -7.4688    0.7782    0.5530 H   0  0
   -6.6668   -0.8801    0.6308 H   0  0
   -7.0817    0.5031   -1.9975 H   0  0
   -6.2237   -1.0155   -1.6870 H   0  0
   -5.3960    0.3643   -2.5681 H   0  0
   -6.5246    2.4339   -1.0717 H   0  0
   -4.7260    2.5149   -1.1837 H   0  0
   -5.5894    2.5735    0.4486 H   0  0
   -3.2917    1.9707    0.1727 H   0  0
   -1.0211    0.9786    0.6328 H   0  0
    4.1952   -2.1474   -1.4981 H   0  0
    6.0683   -0.8038   -1.0642 H   0  0
  1  2  2  0  0  0
  2  6  1  0  0  0
  2  3  1  0  0  0
  3  5  1  0  0  0
  3  4  1  0  0  0
  6  7  2  0  0  0
  7  8  1  0  0  0
  8  9  2  0  0  0
  9 24  1  0  0  0
  9 10  1  0  0  0
 10 11  1  0  0  0
 11 12  1  0  0  0
 12 23  2  0  0  0
 12 13  1  0  0  0
 13 14  2  0  0  0
 14 15  1  0  0  0
 15 16  2  0  0  0
 16 21  1  0  0  0
 16 17  1  0  0  0
 17 20  1  0  0  0
 17 19  1  0  0  0
 17 18  1  0  0  0
 21 22  2  0  0  0
 22 13  1  0  0  0
 24 25  2  0  0  0
 25  6  1  0  0  0
  4 26  1  0  0  0
  4 27  1  0  0  0
  4 28  1  0  0  0
  5 29  1  0  0  0
  5 30  1  0  0  0
  5 31  1  0  0  0
  7 32  1  0  0  0
  8 33  1  0  0  0
 10 34  1  0  0  0
 10 35  1  0  0  0
 11 36  1  0  0  0
 14 37  1  0  0  0
 15 38  1  0  0  0
 18 39  1  0  0  0
 18 40  1  0  0  0
 18 41  1  0  0  0
 19 42  1  0  0  0
 19 43  1  0  0  0
 19 44  1  0  0  0
 20 45  1  0  0  0
 20 46  1  0  0  0
 20 47  1  0  0  0
 21 48  1  0  0  0
 22 49  1  0  0  0
 24 50  1  0  0  0
 25 51  1  0  0  0
M  END
> <pIC50>
5.337

$$$$
D2_23
  DSViewer          3D                             0

 48 49  0  0  0  0  0  0  0  0999 V2000
    7.1523    1.8822    0.4805 O   0  0
    6.7423    0.7816    0.8925 C   0  0
    7.6386    0.0285    1.7453 N   0  0
    8.9447    0.4716    2.1195 C   0  0
    5.4535    0.1761    0.5896 C   0  0
    4.2563    0.4854    1.1664 C   0  0
    3.0502   -0.1438    0.8025 C   0  0
    2.9814   -1.1138   -0.1573 C   0  0
    1.8056   -1.8287   -0.6451 C   0  0
    0.5113   -1.3248   -0.5511 N   0  0
   -0.4185   -1.3380    0.5141 C   0  0
   -1.7740   -0.7816    0.3626 C   0  0
   -2.0768    0.4612   -0.0892 C   0  0
   -3.3972    0.8495   -0.3215 C   0  0
   -4.4328   -0.0292   -0.0921 C   0  0
   -5.8589    0.2816   -0.3524 C   0  0
   -6.7083   -0.0583    0.8501 C   0  0
   -6.0787    1.7186   -0.6817 C   0  0
   -6.3450   -0.5816   -1.5131 C   0  0
   -4.1416   -1.3160    0.3799 C   0  0
   -2.8496   -1.6519    0.5906 C   0  0
   -0.0142   -1.8739    1.5936 O   0  0
    4.2324   -1.4334   -0.7569 C   0  0
    5.3966   -0.8254   -0.4049 C   0  0
    7.2845   -0.8849    2.0957 H   0  0
    9.5392   -0.4393    2.3905 H   0  0
    8.9212    1.1081    3.0234 H   0  0
    9.4577    1.0314    1.3044 H   0  0
    4.2556    1.2488    1.9426 H   0  0
    2.1168    0.1427    1.3089 H   0  0
    1.9809   -2.0404   -1.7777 H   0  0
    1.8555   -2.9327   -0.2867 H   0  0
    0.1101   -0.8124   -1.4292 H   0  0
   -1.2627    1.1725   -0.2679 H   0  0
   -3.6345    1.8343   -0.6822 H   0  0
   -6.1906    0.2950    1.7570 H   0  0
   -6.7759   -1.1740    0.9173 H   0  0
   -7.7130    0.4070    0.7872 H   0  0
   -7.1788    1.9147   -0.5523 H   0  0
   -5.7830    1.9518   -1.7449 H   0  0
   -5.5654    2.3956    0.0131 H   0  0
   -5.7852   -1.5316   -1.5503 H   0  0
   -7.4111   -0.8162   -1.3239 H   0  0
   -6.2015   -0.0662   -2.4685 H   0  0
   -4.9462   -1.9907    0.5583 H   0  0
   -2.6187   -2.6441    0.9490 H   0  0
    4.1796   -2.2117   -1.5194 H   0  0
    6.3547   -1.0780   -0.8736 H   0  0
  1  2  2  0  0  0
  2  5  1  0  0  0
  2  3  1  0  0  0
  3  4  1  0  0  0
  5  6  2  0  0  0
  6  7  1  0  0  0
  7  8  2  0  0  0
  8 23  1  0  0  0
  8  9  1  0  0  0
  9 10  1  0  0  0
 10 11  1  0  0  0
 11 22  2  0  0  0
 11 12  1  0  0  0
 12 13  2  0  0  0
 13 14  1  0  0  0
 14 15  2  0  0  0
 15 20  1  0  0  0
 15 16  1  0  0  0
 16 19  1  0  0  0
 16 18  1  0  0  0
 16 17  1  0  0  0
 20 21  2  0  0  0
 21 12  1  0  0  0
 23 24  2  0  0  0
 24  5  1  0  0  0
  3 25  1  0  0  0
  4 26  1  0  0  0
  4 27  1  0  0  0
  4 28  1  0  0  0
  6 29  1  0  0  0
  7 30  1  0  0  0
  9 31  1  0  0  0
  9 32  1  0  0  0
 10 33  1  0  0  0
 13 34  1  0  0  0
 14 35  1  0  0  0
 17 36  1  0  0  0
 17 37  1  0  0  0
 17 38  1  0  0  0
 18 39  1  0  0  0
 18 40  1  0  0  0
 18 41  1  0  0  0
 19 42  1  0  0  0
 19 43  1  0  0  0
 19 44  1  0  0  0
 20 45  1  0  0  0
 21 46  1  0  0  0
 23 47  1  0  0  0
 24 48  1  0  0  0
M  END
> <pIC50>
5.721

$$$$
D2_34
  DSViewer          3D                             0

 42 43  0  0  0  0  0  0  0  0999 V2000
    0.6742    0.0590    0.2395 O   0  0
    0.6552   -1.2078    0.0706 C   0  0
   -0.5945   -1.8438   -0.0968 N   0  0
   -1.8530   -1.1937   -0.1182 C   0  0
   -2.9897   -1.8842    0.2204 C   0  0
   -4.2630   -1.3600    0.2034 C   0  0
   -4.4157   -0.0434   -0.1825 C   0  0
   -5.7613    0.5415   -0.2180 C   0  0
   -5.7238    1.9713   -0.7576 C   0  0
   -6.3815    0.6157    1.1548 C   0  0
   -6.7038   -0.2441   -1.1203 C   0  0
   -3.3071    0.7031   -0.5350 C   0  0
   -2.0414    0.1388   -0.5047 C   0  0
    1.8938   -1.8987    0.0611 N   0  0
    3.0632   -1.1332    0.2480 C   0  0
    3.9244   -0.9812   -0.8470 C   0  0
    5.0581   -0.2494   -0.6948 C   0  0
    5.4018    0.3622    0.5170 C   0  0
    6.6133    1.1371    0.6301 C   0  0
    6.8968    1.6957    1.8815 O   0  5
    7.3973    1.3290   -0.3002 O   0  0
    4.5325    0.1896    1.5721 C   0  0
    3.3721   -0.5426    1.4705 C   0  0
   -0.5878   -2.8865   -0.2105 H   0  0
   -2.9165   -2.9354    0.5367 H   0  0
   -5.1450   -1.9322    0.4853 H   0  0
   -5.4292    2.0502   -1.7996 H   0  0
   -6.7796    2.3571   -0.6676 H   0  0
   -5.1565    2.6038   -0.0428 H   0  0
   -6.9657   -0.3150    1.3253 H   0  0
   -5.6817    0.8482    1.9509 H   0  0
   -7.1332    1.4435    1.1256 H   0  0
   -7.0527   -1.1504   -0.5777 H   0  0
   -6.2295   -0.4921   -2.0654 H   0  0
   -7.6178    0.3968   -1.2834 H   0  0
   -3.4342    1.7304   -0.8431 H   0  0
   -1.1828    0.6988   -0.7904 H   0  0
    1.9590   -2.9205   -0.0717 H   0  0
    3.6558   -1.4653   -1.8058 H   0  0
    5.7093   -0.1417   -1.5473 H   0  0
    4.7702    0.6523    2.5310 H   0  0
    2.7214   -0.6535    2.3099 H   0  0
  1  2  2  0  0  0
  2 14  1  0  0  0
  2  3  1  0  0  0
  3  4  1  0  0  0
  4  5  2  0  0  0
  5  6  1  0  0  0
  6  7  2  0  0  0
  7 12  1  0  0  0
  7  8  1  0  0  0
  8 11  1  0  0  0
  8 10  1  0  0  0
  8  9  1  0  0  0
 12 13  2  0  0  0
 13  4  1  0  0  0
 14 15  1  0  0  0
 15 16  2  0  0  0
 16 17  1  0  0  0
 17 18  2  0  0  0
 18 22  1  0  0  0
 18 19  1  0  0  0
 19 21  2  0  0  0
 19 20  1  0  0  0
 22 23  2  0  0  0
 23 15  1  0  0  0
  3 24  1  0  0  0
  5 25  1  0  0  0
  6 26  1  0  0  0
  9 27  1  0  0  0
  9 28  1  0  0  0
  9 29  1  0  0  0
 10 30  1  0  0  0
 10 31  1  0  0  0
 10 32  1  0  0  0
 11 33  1  0  0  0
 11 34  1  0  0  0
 11 35  1  0  0  0
 12 36  1  0  0  0
 13 37  1  0  0  0
 14 38  1  0  0  0
 16 39  1  0  0  0
 17 40  1  0  0  0
 22 41  1  0  0  0
 23 42  1  0  0  0
M  CHG  1  20  -1
M  END
> <pIC50>
4.733

$$$$
D2_28
  DSViewer          3D                             0

 47 48  0  0  0  0  0  0  0  0999 V2000
    0.1631   -1.5480    1.8122 O   0  0
   -0.2440   -1.5146    0.6092 C   0  0
    0.5852   -2.0006   -0.4227 N   0  0
    1.8967   -2.5463   -0.1824 C   0  0
    2.8969   -1.4867    0.0725 C   0  0
    3.4914   -0.8323   -1.0072 C   0  0
    4.4354    0.1536   -0.8471 C   0  0
    4.8372    0.5397    0.4133 C   0  0
    5.8404    1.5838    0.6170 C   0  0
    6.4394    2.2364   -0.4489 O   0  5
    6.1779    1.9069    1.7752 O   0  0
    4.2575   -0.0987    1.4831 C   0  0
    3.2977   -1.1016    1.3294 C   0  0
   -1.5882   -0.9598    0.3410 C   0  0
   -1.7610    0.4002    0.2129 C   0  0
   -2.9903    0.9680   -0.0298 C   0  0
   -4.0641    0.1157   -0.1432 C   0  0
   -5.4090    0.6720   -0.4064 C   0  0
   -6.3723    0.3848    0.7459 C   0  0
   -6.0227    0.1511   -1.6687 C   0  0
   -5.3277    2.1832   -0.5022 C   0  0
   -3.9389   -1.2450   -0.0225 C   0  0
   -5.0730   -2.0723   -0.1467 O   0  0
   -4.8810   -3.4611   -0.0114 C   0  0
   -2.7005   -1.7850    0.2196 C   0  0
    0.1786   -1.9396   -1.4024 H   0  0
    2.2219   -3.1771   -1.0451 H   0  0
    1.8272   -3.1779    0.7359 H   0  0
    3.1776   -1.1330   -2.0084 H   0  0
    4.9071    0.6708   -1.6766 H   0  0
    4.5469    0.1767    2.5091 H   0  0
    2.8598   -1.5891    2.1785 H   0  0
   -0.8839    1.0308    0.3092 H   0  0
   -3.0840    2.0565   -0.1253 H   0  0
   -7.2703    1.0232    0.5344 H   0  0
   -5.9573    0.7651    1.7083 H   0  0
   -6.7164   -0.6467    0.7781 H   0  0
   -6.9839   -0.3907   -1.4730 H   0  0
   -5.3798   -0.5694   -2.2125 H   0  0
   -6.2955    0.9817   -2.3736 H   0  0
   -4.7796    2.5273   -1.3764 H   0  0
   -6.3922    2.5310   -0.6436 H   0  0
   -4.9534    2.6247    0.4649 H   0  0
   -5.9010   -3.9456    0.0809 H   0  0
   -4.3890   -3.9161   -0.9198 H   0  0
   -4.2808   -3.7015    0.8878 H   0  0
   -2.5403   -2.8525    0.3225 H   0  0
  1  2  2  0  0  0
  2 14  1  0  0  0
  2  3  1  0  0  0
  3  4  1  0  0  0
  4  5  1  0  0  0
  5  6  2  0  0  0
  6  7  1  0  0  0
  7  8  2  0  0  0
  8 12  1  0  0  0
  8  9  1  0  0  0
  9 11  2  0  0  0
  9 10  1  0  0  0
 12 13  2  0  0  0
 13  5  1  0  0  0
 14 15  2  0  0  0
 15 16  1  0  0  0
 16 17  2  0  0  0
 17 22  1  0  0  0
 17 18  1  0  0  0
 18 21  1  0  0  0
 18 20  1  0  0  0
 18 19  1  0  0  0
 22 25  2  0  0  0
 22 23  1  0  0  0
 23 24  1  0  0  0
 25 14  1  0  0  0
  3 26  1  0  0  0
  4 27  1  0  0  0
  4 28  1  0  0  0
  6 29  1  0  0  0
  7 30  1  0  0  0
 12 31  1  0  0  0
 13 32  1  0  0  0
 15 33  1  0  0  0
 16 34  1  0  0  0
 19 35  1  0  0  0
 19 36  1  0  0  0
 19 37  1  0  0  0
 20 38  1  0  0  0
 20 39  1  0  0  0
 20 40  1  0  0  0
 21 41  1  0  0  0
 21 42  1  0  0  0
 21 43  1  0  0  0
 24 44  1  0  0  0
 24 45  1  0  0  0
 24 46  1  0  0  0
 25 47  1  0  0  0
M  CHG  1  10  -1
M  END
> <pIC50>
5.298

$$$$
D2_26
  DSViewer          3D                             0

 43 44  0  0  0  0  0  0  0  0999 V2000
   -0.1103   -1.4555    1.6644 O   0  0
   -0.3524   -1.3702    0.4059 C   0  0
    0.6274   -1.8103   -0.4874 N   0  0
    1.9108   -2.3514   -0.0720 C   0  0
    2.9902   -1.3963    0.2136 C   0  0
    3.0060   -0.5865    1.3230 C   0  0
    4.0950    0.2536    1.4914 C   0  0
    5.1548    0.3222    0.6181 C   0  0
    6.2896    1.1940    0.8397 C   0  0
    7.4304    1.2813    0.1100 O   0  5
    6.1954    1.9727    1.8558 O   0  0
    5.1554   -0.4783   -0.4924 C   0  0
    4.0875   -1.3257   -0.6875 C   0  0
   -1.6594   -0.8220    0.1247 C   0  0
   -1.9262    0.5474    0.2619 C   0  0
   -3.2175    1.0028    0.0925 C   0  0
   -4.2346    0.1481   -0.2043 C   0  0
   -5.6463    0.5633   -0.3289 C   0  0
   -6.2603    0.1701    1.0422 C   0  0
   -6.3062   -0.2758   -1.4137 C   0  0
   -5.9043    2.0008   -0.4999 C   0  0
   -4.0211   -1.2387   -0.3558 C   0  0
   -2.7156   -1.6557   -0.1781 C   0  0
    0.4147   -1.7339   -1.5056 H   0  0
    1.7528   -2.9941    0.8566 H   0  0
    2.2578   -3.0913   -0.8374 H   0  0
    2.2257   -0.5747    2.0690 H   0  0
    4.0833    0.8898    2.4045 H   0  0
    5.9859   -0.4554   -1.2139 H   0  0
    4.1072   -1.9356   -1.5774 H   0  0
   -1.1279    1.2452    0.4799 H   0  0
   -3.4119    2.0777    0.2033 H   0  0
   -5.5739    0.5563    1.7978 H   0  0
   -7.2562    0.6040    1.1588 H   0  0
   -6.3055   -0.9371    1.0929 H   0  0
   -6.7740    0.4802   -2.1096 H   0  0
   -7.1024   -0.8997   -0.9383 H   0  0
   -5.6007   -0.8266   -2.0203 H   0  0
   -6.6630    2.1167   -1.3378 H   0  0
   -5.0911    2.6643   -0.7424 H   0  0
   -6.4414    2.4734    0.3822 H   0  0
   -4.8101   -1.9110   -0.5784 H   0  0
   -2.4765   -2.7312   -0.2876 H   0  0
  1  2  2  0  0  0
  2 14  1  0  0  0
  2  3  1  0  0  0
  3  4  1  0  0  0
  4  5  1  0  0  0
  5  6  2  0  0  0
  6  7  1  0  0  0
  7  8  2  0  0  0
  8 12  1  0  0  0
  8  9  1  0  0  0
  9 11  2  0  0  0
  9 10  1  0  0  0
 12 13  2  0  0  0
 13  5  1  0  0  0
 14 15  2  0  0  0
 15 16  1  0  0  0
 16 17  2  0  0  0
 17 22  1  0  0  0
 17 18  1  0  0  0
 18 21  1  0  0  0
 18 20  1  0  0  0
 18 19  1  0  0  0
 22 23  2  0  0  0
 23 14  1  0  0  0
  3 24  1  0  0  0
  4 25  1  0  0  0
  4 26  1  0  0  0
  6 27  1  0  0  0
  7 28  1  0  0  0
 12 29  1  0  0  0
 13 30  1  0  0  0
 15 31  1  0  0  0
 16 32  1  0  0  0
 19 33  1  0  0  0
 19 34  1  0  0  0
 19 35  1  0  0  0
 20 36  1  0  0  0
 20 37  1  0  0  0
 20 38  1  0  0  0
 21 39  1  0  0  0
 21 40  1  0  0  0
 21 41  1  0  0  0
 22 42  1  0  0  0
 23 43  1  0  0  0
M  CHG  1  10  -1
M  END
> <pIC50>
5.377

$$$$
D2_29
  DSViewer          3D                             0

 41 43  0  0  0  0  0  0  0  0999 V2000
   -0.5150   -3.0324   -0.0405 O   0  0
   -0.5476   -1.7438   -0.0822 C   0  0
    0.7082   -1.0500   -0.1168 N   0  0
    1.8803   -1.8557   -0.0991 C   0  0
    3.1548   -1.1695    0.0764 C   0  0
    3.4849   -0.4226    1.1918 C   0  0
    4.7103    0.1866    1.3358 C   0  0
    5.6627    0.0611    0.3410 C   0  0
    6.9734    0.6737    0.4471 C   0  0
    7.9222    0.5399   -0.5385 O   0  5
    7.2374    1.3444    1.4754 O   0  0
    5.3797   -0.6717   -0.7879 C   0  0
    4.1298   -1.2714   -0.8949 C   0  0
   -1.8430   -1.0988   -0.0861 C   0  0
   -2.9302   -1.7587    0.4880 C   0  0
   -4.1799   -1.1987    0.5144 C   0  0
   -4.4145    0.0547   -0.0330 C   0  0
   -5.7425    0.6602    0.0194 C   0  0
   -6.1602    1.4908   -0.9863 C   0  0
   -7.4319    2.0761   -0.9150 C   0  0
   -8.2421    1.8097    0.1601 C   0  0
   -7.8095    0.9638    1.1781 C   0  0
   -6.5752    0.4015    1.1003 C   0  0
   -3.3548    0.7156   -0.6024 C   0  0
   -2.0826    0.1376   -0.6249 C   0  0
    0.6571   -0.0069   -0.1517 H   0  0
    1.7713   -2.5534    0.7855 H   0  0
    1.9068   -2.4928   -1.0092 H   0  0
    2.7025   -0.3474    1.9550 H   0  0
    4.9439    0.7604    2.2072 H   0  0
    6.1396   -0.7727   -1.5765 H   0  0
    3.8941   -1.8547   -1.7856 H   0  0
   -2.7348   -2.7457    0.9159 H   0  0
   -5.0090   -1.7197    0.9591 H   0  0
   -5.5746    1.7380   -1.8582 H   0  0
   -7.7918    2.7337   -1.6882 H   0  0
   -9.2086    2.2667    0.1980 H   0  0
   -8.4474    0.7589    2.0246 H   0  0
   -6.2053   -0.2622    1.8757 H   0  0
   -3.5150    1.7013   -1.0412 H   0  0
   -1.2918    0.7058   -1.0858 H   0  0
  1  2  2  0  0  0
  2 14  1  0  0  0
  2  3  1  0  0  0
  3  4  1  0  0  0
  4  5  1  0  0  0
  5  6  2  0  0  0
  6  7  1  0  0  0
  7  8  2  0  0  0
  8 12  1  0  0  0
  8  9  1  0  0  0
  9 11  2  0  0  0
  9 10  1  0  0  0
 12 13  2  0  0  0
 13  5  1  0  0  0
 14 15  2  0  0  0
 15 16  1  0  0  0
 16 17  2  0  0  0
 17 24  1  0  0  0
 17 18  1  0  0  0
 18 19  2  0  0  0
 19 20  1  0  0  0
 20 21  2  0  0  0
 21 22  1  0  0  0
 22 23  2  0  0  0
 23 18  1  0  0  0
 24 25  2  0  0  0
 25 14  1  0  0  0
  3 26  1  0  0  0
  4 27  1  0  0  0
  4 28  1  0  0  0
  6 29  1  0  0  0
  7 30  1  0  0  0
 12 31  1  0  0  0
 13 32  1  0  0  0
 15 33  1  0  0  0
 16 34  1  0  0  0
 19 35  1  0  0  0
 20 36  1  0  0  0
 21 37  1  0  0  0
 22 38  1  0  0  0
 23 39  1  0  0  0
 24 40  1  0  0  0
 25 41  1  0  0  0
M  CHG  1  10  -1
M  END
> <pIC50>
5.092

$$$$
D2_31
  DSViewer          3D                             0

 31 32  0  0  0  0  0  0  0  0999 V2000
    0.2158   -1.7261    1.7983 O   0  0
   -0.2230   -1.5069    0.6379 C   0  0
    0.5830   -1.8434   -0.4804 N   0  0
    1.8990   -2.4324   -0.3900 C   0  0
    2.9370   -1.4515   -0.0196 C   0  0
    3.3779   -1.2255    1.2757 C   0  0
    4.3635   -0.2716    1.4771 C   0  0
    4.9291    0.4656    0.4536 C   0  0
    5.9649    1.4528    0.7483 C   0  0
    6.4912    2.1575   -0.3242 O   0  5
    6.3715    1.6674    1.9053 O   0  0
    4.4777    0.2261   -0.8236 C   0  0
    3.5013   -0.7135   -1.0556 C   0  0
   -1.5306   -0.9187    0.3782 C   0  0
   -2.6386   -1.7512    0.2051 C   0  0
   -3.8871   -1.2190   -0.0453 C   0  0
   -4.1020    0.1392   -0.1364 C   0  0
   -5.6910    0.8018   -0.4561 Cl  0  0
   -3.0093    0.9648    0.0341 C   0  0
   -3.2548    2.7095   -0.0781 Cl  0  0
   -1.7545    0.4268    0.2859 C   0  0
    0.1673   -1.6365   -1.4361 H   0  0
    1.8955   -3.2921    0.3112 H   0  0
    2.1452   -2.8369   -1.4065 H   0  0
    2.9434   -1.7940    2.0716 H   0  0
    4.7025   -0.1017    2.4965 H   0  0
    4.9007    0.7847   -1.6402 H   0  0
    3.1705   -0.8768   -2.0635 H   0  0
   -2.4567   -2.8261    0.2801 H   0  0
   -4.7451   -1.8636   -0.1791 H   0  0
   -0.9042    1.1005    0.4168 H   0  0
  1  2  2  0  0  0
  2 14  1  0  0  0
  2  3  1  0  0  0
  3  4  1  0  0  0
  4  5  1  0  0  0
  5  6  2  0  0  0
  6  7  1  0  0  0
  7  8  2  0  0  0
  8 12  1  0  0  0
  8  9  1  0  0  0
  9 11  2  0  0  0
  9 10  1  0  0  0
 12 13  2  0  0  0
 13  5  1  0  0  0
 14 15  2  0  0  0
 15 16  1  0  0  0
 16 17  2  0  0  0
 17 19  1  0  0  0
 17 18  1  0  0  0
 19 21  2  0  0  0
 19 20  1  0  0  0
 21 14  1  0  0  0
  3 22  1  0  0  0
  4 23  1  0  0  0
  4 24  1  0  0  0
  6 25  1  0  0  0
  7 26  1  0  0  0
 12 27  1  0  0  0
 13 28  1  0  0  0
 15 29  1  0  0  0
 16 30  1  0  0  0
 21 31  1  0  0  0
M  CHG  1  10  -1
M  END
> <pIC50>
4.979

$$$$
D2_30
  DSViewer          3D                             0

 41 43  0  0  0  0  0  0  0  0999 V2000
   -0.7101   -3.2463   -0.6661 O   0  0
   -0.5907   -2.0264   -0.3369 C   0  0
    0.6671   -1.4013   -0.1856 N   0  0
    1.9165   -2.1452   -0.4102 C   0  0
    3.0667   -1.2751   -0.0568 C   0  0
    2.9809   -0.4706    1.0665 C   0  0
    4.0366    0.3457    1.4023 C   0  0
    5.1726    0.3304    0.5836 C   0  0
    6.2704    1.2050    0.9625 C   0  0
    7.4167    1.2266    0.1789 O   0  5
    6.2285    1.9446    1.9700 O   0  0
    5.2538   -0.4724   -0.5332 C   0  0
    4.1772   -1.2970   -0.8658 C   0  0
   -1.8019   -1.2082   -0.0963 C   0  0
   -1.7923    0.1633   -0.2177 C   0  0
   -2.9548    0.8833    0.0323 C   0  0
   -4.1227    0.2520    0.4008 C   0  0
   -4.1591   -1.1319    0.5307 C   0  0
   -5.3887   -1.8008    0.9249 C   0  0
   -6.6427   -1.3242    0.5839 C   0  0
   -7.8136   -1.9502    0.9646 C   0  0
   -7.7534   -3.1061    1.7210 C   0  0
   -6.5109   -3.6038    2.0755 C   0  0
   -5.3618   -2.9548    1.6789 C   0  0
   -2.9924   -1.8081    0.2756 C   0  0
    0.7002   -0.4012    0.0918 H   0  0
    1.8975   -3.1021    0.1201 H   0  0
    1.9876   -2.3654   -1.4946 H   0  0
    2.0837   -0.5030    1.6566 H   0  0
    3.9616    0.9635    2.2730 H   0  0
    6.1553   -0.4264   -1.1060 H   0  0
    4.3004   -1.8998   -1.7501 H   0  0
   -0.8843    0.6717   -0.5098 H   0  0
   -2.9358    1.9681   -0.0669 H   0  0
   -5.0469    0.7711    0.6043 H   0  0
   -6.7233   -0.4246   -0.0060 H   0  0
   -8.8006   -1.5890    0.7049 H   0  0
   -8.6708   -3.6246    2.0381 H   0  0
   -6.4377   -4.5051    2.6675 H   0  0
   -4.3753   -3.3279    1.9464 H   0  0
   -2.9980   -2.8851    0.3699 H   0  0
  1  2  2  0  0  0
  2 14  1  0  0  0
  2  3  1  0  0  0
  3  4  1  0  0  0
  4  5  1  0  0  0
  5  6  2  0  0  0
  6  7  1  0  0  0
  7  8  2  0  0  0
  8 12  1  0  0  0
  8  9  1  0  0  0
  9 11  2  0  0  0
  9 10  1  0  0  0
 12 13  2  0  0  0
 13  5  1  0  0  0
 14 15  2  0  0  0
 15 16  1  0  0  0
 16 17  2  0  0  0
 17 18  1  0  0  0
 18 25  2  0  0  0
 18 19  1  0  0  0
 19 20  2  0  0  0
 20 21  1  0  0  0
 21 22  2  0  0  0
 22 23  1  0  0  0
 23 24  2  0  0  0
 24 19  1  0  0  0
 25 14  1  0  0  0
  3 26  1  0  0  0
  4 27  1  0  0  0
  4 28  1  0  0  0
  6 29  1  0  0  0
  7 30  1  0  0  0
 12 31  1  0  0  0
 13 32  1  0  0  0
 15 33  1  0  0  0
 16 34  1  0  0  0
 17 35  1  0  0  0
 20 36  1  0  0  0
 21 37  1  0  0  0
 22 38  1  0  0  0
 23 39  1  0  0  0
 24 40  1  0  0  0
 25 41  1  0  0  0
M  CHG  1  10  -1
M  END
> <pIC50>
5

$$$$
D3_28
  DSViewer          3D                             0

 46 47  0  0  0  0  0  0  0  0999 V2000
   -0.3507   -2.1240    1.5542 O   0  0
   -0.6389   -1.4885    0.5194 C   0  0
   -1.9363   -1.2678    0.1257 N   0  0
   -3.0637   -1.7381    0.9172 C   0  0
   -4.2908   -1.0979    0.3942 C   0  0
   -4.7746   -1.3585   -0.8301 C   0  0
   -5.9548   -0.7516   -1.2872 C   0  0
   -6.6046    0.1352   -0.4132 C   0  0
   -6.0572    0.3698    0.8566 C   0  0
   -4.9284   -0.2164    1.2789 C   0  0
   -4.3309    0.0143    2.6155 C   0  0
   -2.9853    0.3229    2.5994 F   0  0
   -4.4775   -1.1899    3.3486 F   0  0
   -5.0035    1.0029    3.2827 F   0  0
    0.4893   -0.9392   -0.2959 C   0  0
    0.2863    0.0232   -1.2541 C   0  0
    1.3659    0.5280   -1.9638 C   0  0
    2.6506    0.0532   -1.7075 C   0  0
    2.8787   -0.9067   -0.7627 C   0  0
    4.1579   -1.5414   -0.5147 C   0  0
    5.3518   -0.7152   -0.2368 C   0  0  2  0  0  0
    6.4422   -1.8266   -0.0233 C   0  0
    7.7727   -1.2947    0.2983 C   0  0
    5.3814    0.2109    0.8493 C   0  0
    6.4883    1.1272    0.8970 O   0  5
    4.5541    0.3086    1.7550 O   0  0
    1.7432   -1.3783   -0.0692 C   0  0
   -2.1510   -0.7508   -0.7829 H   0  0
   -3.1673   -2.8500    0.5896 H   0  0
   -2.9084   -1.8031    1.9699 H   0  0
   -4.3037   -2.0449   -1.5512 H   0  0
   -6.3803   -0.9450   -2.2556 H   0  0
   -7.5016    0.6557   -0.6556 H   0  0
   -6.5713    1.0789    1.5011 H   0  0
   -0.6993    0.3955   -1.4448 H   0  0
    1.1814    1.3083   -2.7181 H   0  0
    3.4579    0.4749   -2.2738 H   0  0
    4.0150   -2.2743    0.3774 H   0  0
    4.4421   -2.2739   -1.3306 H   0  0
    5.6281   -0.2224   -1.2215 H   0  0
    6.0802   -2.4392    0.8642 H   0  0
    6.4265   -2.4616   -0.8921 H   0  0
    7.9615   -1.1656    1.3817 H   0  0
    8.0955   -0.3911   -0.2728 H   0  0
    8.5276   -2.0994    0.0036 H   0  0
    1.9040   -2.1538    0.6850 H   0  0
  1  2  2  0  0  0
  2 15  1  0  0  0
  2  3  1  0  0  0
  3  4  1  0  0  0
  4  5  1  0  0  0
  5  6  2  0  0  0
  6  7  1  0  0  0
  7  8  2  0  0  0
  8  9  1  0  0  0
  9 10  2  0  0  0
 10 11  1  0  0  0
 10  5  1  0  0  0
 11 14  1  0  0  0
 11 13  1  0  0  0
 11 12  1  0  0  0
 15 16  2  0  0  0
 16 17  1  0  0  0
 17 18  2  0  0  0
 18 19  1  0  0  0
 19 27  2  0  0  0
 19 20  1  0  0  0
 20 21  1  0  0  0
 21 24  1  0  0  0
 21 22  1  0  0  0
 22 23  1  0  0  0
 24 26  2  0  0  0
 24 25  1  0  0  0
 27 15  1  0  0  0
  3 28  1  0  0  0
  4 29  1  0  0  0
  4 30  1  0  0  0
  6 31  1  0  0  0
  7 32  1  0  0  0
  8 33  1  0  0  0
  9 34  1  0  0  0
 16 35  1  0  0  0
 17 36  1  0  0  0
 18 37  1  0  0  0
 20 38  1  0  0  0
 20 39  1  0  0  0
 21 40  1  0  0  0
 22 41  1  0  0  0
 22 42  1  0  0  0
 23 43  1  0  0  0
 23 44  1  0  0  0
 23 45  1  0  0  0
 27 46  1  0  0  0
M  CHG  1  25  -1
M  END
> <pIC50>
6.046

$$$$
D3_16
  DSViewer          3D                             0

 53 54  0  0  0  0  0  0  0  0999 V2000
   -1.5216    0.2652    0.3819 O   0  0
   -1.5537   -0.9989    0.3082 C   0  0
   -2.7986   -1.6334    0.5254 N   0  0
   -3.9884   -0.8585    0.8116 C   0  0
   -4.3947   -0.0284   -0.3375 C   0  0
   -3.7562   -0.0625   -1.5377 C   0  0
   -4.1858    0.7173   -2.6046 C   0  0
   -5.2626    1.5340   -2.4626 C   0  0
   -5.9109    1.5625   -1.2313 C   0  0
   -5.5029    0.7986   -0.1591 C   0  0
   -6.2107    0.8534    1.1319 C   0  0
   -5.4175    1.3573    2.1537 F   0  0
   -6.7367   -0.3743    1.4835 F   0  0
   -7.2643    1.7563    1.0091 F   0  0
   -0.3103   -1.7394    0.0044 C   0  0
   -0.3182   -3.1049   -0.1339 C   0  0
    0.8852   -3.7395   -0.4181 C   0  0
    2.0590   -3.0683   -0.5632 C   0  0
    2.0703   -1.6912   -0.4244 C   0  0
    3.2634   -0.8805   -0.5949 C   0  0
    4.1878   -0.6765    0.5245 C   0  0  2  0  0  0
    3.6503    0.0336    1.7402 C   0  0
    2.5238   -0.6274    2.4425 C   0  0
    5.3122    0.1971    0.0431 C   0  0
    6.3583    0.5856    0.8497 O   0  0
    7.3929    1.4201    0.3163 C   0  0
    8.0221    0.6494   -0.8431 C   0  0
    5.2698    0.5727   -1.1463 O   0  0
    0.8812   -1.0532   -0.1425 C   0  0
   -2.8648   -2.6743    0.4799 H   0  0
   -4.8470   -1.5609    1.0132 H   0  0
   -3.8573   -0.2522    1.7347 H   0  0
   -2.9043   -0.7159   -1.6877 H   0  0
   -3.6428    0.6497   -3.5280 H   0  0
   -5.6217    2.1543   -3.2761 H   0  0
   -6.7802    2.2066   -1.0795 H   0  0
   -1.2294   -3.6748   -0.0266 H   0  0
    0.8720   -4.8182   -0.5263 H   0  0
    3.0096   -3.5304   -0.7838 H   0  0
    3.8313   -1.3076   -1.4840 H   0  0
    2.9363    0.1483   -0.9488 H   0  0
    4.7334   -1.6182    0.8303 H   0  0
    3.4227    1.0896    1.4435 H   0  0
    4.5106    0.1357    2.4710 H   0  0
    2.7724   -0.6373    3.5568 H   0  0
    1.5626   -0.0658    2.4224 H   0  0
    2.4519   -1.6780    2.1390 H   0  0
    8.1482    1.6587    1.0702 H   0  0
    6.9831    2.3568   -0.1137 H   0  0
    7.7519   -0.4348   -0.7851 H   0  0
    7.7614    1.0915   -1.8176 H   0  0
    9.1372    0.6848   -0.7649 H   0  0
    0.8396    0.0441   -0.0227 H   0  0
  1  2  2  0  0  0
  2 15  1  0  0  0
  2  3  1  0  0  0
  3  4  1  0  0  0
  4  5  1  0  0  0
  5  6  2  0  0  0
  6  7  1  0  0  0
  7  8  2  0  0  0
  8  9  1  0  0  0
  9 10  2  0  0  0
 10 11  1  0  0  0
 10  5  1  0  0  0
 11 14  1  0  0  0
 11 13  1  0  0  0
 11 12  1  0  0  0
 15 16  2  0  0  0
 16 17  1  0  0  0
 17 18  2  0  0  0
 18 19  1  0  0  0
 19 29  2  0  0  0
 19 20  1  0  0  0
 20 21  1  0  0  0
 21 24  1  0  0  0
 21 22  1  0  0  0
 22 23  1  0  0  0
 24 28  2  0  0  0
 24 25  1  0  0  0
 25 26  1  0  0  0
 26 27  1  0  0  0
 29 15  1  0  0  0
  3 30  1  0  0  0
  4 31  1  0  0  0
  4 32  1  0  0  0
  6 33  1  0  0  0
  7 34  1  0  0  0
  8 35  1  0  0  0
  9 36  1  0  0  0
 16 37  1  0  0  0
 17 38  1  0  0  0
 18 39  1  0  0  0
 20 40  1  0  0  0
 20 41  1  0  0  0
 21 42  1  0  0  0
 22 43  1  0  0  0
 22 44  1  0  0  0
 23 45  1  0  0  0
 23 46  1  0  0  0
 23 47  1  0  0  0
 26 48  1  0  0  0
 26 49  1  0  0  0
 27 50  1  0  0  0
 27 51  1  0  0  0
 27 52  1  0  0  0
 29 53  1  0  0  0
M  END
> <pIC50>
7.569

$$$$
D2_24
  DSViewer          3D                             0

 45 46  0  0  0  0  0  0  0  0999 V2000
    7.4675    0.9408    0.1641 O   0  0
    6.4165    1.1094    1.0313 C   0  0
    5.2132    0.3179    0.6368 C   0  0
    3.9740    0.5472    1.1850 C   0  0
    2.8463   -0.1942    0.8185 C   0  0
    2.9425   -1.1969   -0.1170 C   0  0
    1.8354   -2.0456   -0.5750 C   0  0
    0.5299   -1.5042   -0.5676 N   0  0
   -0.3598   -1.3921    0.5320 C   0  0
   -1.6669   -0.8154    0.3024 C   0  0
   -2.7444   -1.7019    0.4630 C   0  0
   -4.0181   -1.2410    0.2516 C   0  0
   -4.2360    0.1023   -0.1214 C   0  0
   -5.6603    0.4268   -0.3318 C   0  0
   -6.3978   -0.1903    0.8647 C   0  0
   -6.0929   -0.3943   -1.5717 C   0  0
   -6.0434    1.8413   -0.4123 C   0  0
   -3.1907    0.9699   -0.2776 C   0  0
   -1.8891    0.4837   -0.0574 C   0  0
    0.0054   -1.7929    1.6423 O   0  0
    4.2188   -1.4215   -0.6703 C   0  0
    5.3294   -0.6949   -0.3135 C   0  0
    7.8536    0.0248    0.2606 H   0  0
    6.6702    0.8166    2.0838 H   0  0
    6.1099    2.1762    1.0670 H   0  0
    3.8914    1.3534    1.9350 H   0  0
    1.9107    0.0393    1.2764 H   0  0
    2.0832   -2.4399   -1.5983 H   0  0
    1.8026   -2.9865    0.0774 H   0  0
    0.1647   -1.1437   -1.5155 H   0  0
   -2.5651   -2.7547    0.7489 H   0  0
   -4.8505   -1.9389    0.3722 H   0  0
   -7.1589    0.4904    1.2830 H   0  0
   -6.8644   -1.1636    0.5943 H   0  0
   -5.6935   -0.4167    1.6828 H   0  0
   -7.1533   -0.1318   -1.7300 H   0  0
   -5.4635   -0.1638   -2.4497 H   0  0
   -6.0950   -1.4622   -1.2856 H   0  0
   -5.2996    2.5668   -0.7844 H   0  0
   -6.4650    2.2715    0.5399 H   0  0
   -6.8979    1.9210   -1.1458 H   0  0
   -3.3969    1.9862   -0.5563 H   0  0
   -1.0694    1.1511   -0.1659 H   0  0
    4.2804   -2.2243   -1.4092 H   0  0
    6.3051   -0.8789   -0.7443 H   0  0
  1  2  1  0  0  0
  2  3  1  0  0  0
  3  4  2  0  0  0
  4  5  1  0  0  0
  5  6  2  0  0  0
  6 21  1  0  0  0
  6  7  1  0  0  0
  7  8  1  0  0  0
  8  9  1  0  0  0
  9 20  2  0  0  0
  9 10  1  0  0  0
 10 11  2  0  0  0
 11 12  1  0  0  0
 12 13  2  0  0  0
 13 18  1  0  0  0
 13 14  1  0  0  0
 14 17  1  0  0  0
 14 16  1  0  0  0
 14 15  1  0  0  0
 18 19  2  0  0  0
 19 10  1  0  0  0
 21 22  2  0  0  0
 22  3  1  0  0  0
  1 23  1  0  0  0
  2 24  1  0  0  0
  2 25  1  0  0  0
  4 26  1  0  0  0
  5 27  1  0  0  0
  7 28  1  0  0  0
  7 29  1  0  0  0
  8 30  1  0  0  0
 11 31  1  0  0  0
 12 32  1  0  0  0
 15 33  1  0  0  0
 15 34  1  0  0  0
 15 35  1  0  0  0
 16 36  1  0  0  0
 16 37  1  0  0  0
 16 38  1  0  0  0
 17 39  1  0  0  0
 17 40  1  0  0  0
 17 41  1  0  0  0
 18 42  1  0  0  0
 19 43  1  0  0  0
 21 44  1  0  0  0
 22 45  1  0  0  0
M  END
> <pIC50>
5.688

$$$$
D5_01
  DSViewer          3D                             0

 39 41  0  0  0  0  0  0  0  0999 V2000
   -5.3375   -2.6428    0.3266 Cl  0  0
   -4.0545   -1.4713    0.2305 C   0  0
   -4.3780   -0.1629   -0.0414 C   0  0
   -6.0564    0.2729   -0.2838 Cl  0  0
   -3.3875    0.8219   -0.1312 C   0  0
   -2.0801    0.4235    0.0659 C   0  0
   -1.7238   -0.8699    0.3386 C   0  0
   -0.3476   -1.2721    0.5267 C   0  0
    0.2225   -1.6228    1.7203 C   0  0
   -0.4548   -1.6375    3.0114 C   0  0
   -0.9048   -0.4918    3.6317 C   0  0
   -1.5497   -0.4944    4.8478 C   0  0
   -1.7664   -1.7104    5.4977 C   0  0
   -1.3224   -2.8683    4.8915 C   0  0
   -0.6784   -2.8291    3.6695 C   0  0
    1.4754   -1.9305    1.4473 O   0  0
    1.7174   -1.7969    0.1932 C   0  0
    3.0010   -2.0363   -0.5542 C   0  0
    3.8592   -0.8131   -0.6187 C   0  0
    4.3036   -0.3057    0.7399 C   0  0
    5.1176    0.9039    0.4895 C   0  0
    6.4113    1.0566    0.9841 O   0  5
    4.6249    1.8295   -0.1979 O   0  0
    0.6037   -1.3815   -0.4489 N   0  0
   -2.7163   -1.8185    0.4200 C   0  0
   -3.6486    1.8493   -0.3456 H   0  0
   -1.2682    1.1512    0.0087 H   0  0
   -0.7571    0.4718    3.1708 H   0  0
   -1.9038    0.3988    5.3474 H   0  0
   -2.2696   -1.7457    6.4515 H   0  0
   -1.5016   -3.8040    5.4177 H   0  0
   -0.3574   -3.7525    3.2498 H   0  0
    3.5639   -2.8731   -0.0806 H   0  0
    2.7924   -2.3476   -1.5972 H   0  0
    4.7840   -1.1096   -1.1860 H   0  0
    3.3901   -0.0132   -1.2062 H   0  0
    3.4203   -0.0710    1.3869 H   0  0
    4.9339   -1.0664    1.2464 H   0  0
   -2.5146   -2.8676    0.6350 H   0  0
  1  2  1  0  0  0
  2  3  2  0  0  0
  3  5  1  0  0  0
  3  4  1  0  0  0
  5  6  2  0  0  0
  6  7  1  0  0  0
  7 25  2  0  0  0
  7  8  1  0  0  0
  8  9  2  0  0  0
  9 16  1  0  0  0
  9 10  1  0  0  0
 10 11  2  0  0  0
 11 12  1  0  0  0
 12 13  2  0  0  0
 13 14  1  0  0  0
 14 15  2  0  0  0
 15 10  1  0  0  0
 16 17  1  0  0  0
 17 24  2  0  0  0
 17 18  1  0  0  0
 18 19  1  0  0  0
 19 20  1  0  0  0
 20 21  1  0  0  0
 21 23  2  0  0  0
 21 22  1  0  0  0
 24  8  1  0  0  0
 25  2  1  0  0  0
  5 26  1  0  0  0
  6 27  1  0  0  0
 11 28  1  0  0  0
 12 29  1  0  0  0
 13 30  1  0  0  0
 14 31  1  0  0  0
 15 32  1  0  0  0
 18 33  1  0  0  0
 18 34  1  0  0  0
 19 35  1  0  0  0
 19 36  1  0  0  0
 20 37  1  0  0  0
 20 38  1  0  0  0
 25 39  1  0  0  0
M  CHG  1  22  -1
M  END
> <pIC50>
7.237

$$$$
D5_02
  DSViewer          3D                             0

 39 41  0  0  0  0  0  0  0  0999 V2000
    7.4539    1.2096    0.4662 O   0  5
    6.1277    1.0378    0.8084 C   0  0
    5.3818   -0.1401    0.3140 C   0  0
    3.9503   -0.1465    0.8039 C   0  0
    3.2783   -1.3761    0.2489 C   0  0
    1.8523   -1.4667    0.6852 C   0  0
    0.7991   -0.9460    0.0324 N   0  0
   -0.3393   -1.2248    0.7233 C   0  0
   -1.6943   -0.8662    0.4050 C   0  0
   -2.1486    0.4330    0.2714 C   0  0
   -3.4645    0.7216   -0.0343 C   0  0
   -4.3677   -0.2958   -0.2157 C   0  0
   -3.9427   -1.5969   -0.0888 C   0  0
   -2.6235   -1.8674    0.2172 C   0  0
    0.0641   -1.9358    1.8219 C   0  0
   -0.7812   -2.4868    2.9048 C   0  0
   -1.5157   -1.6655    3.6993 C   0  0
   -2.3114   -2.1508    4.7153 C   0  0
   -3.0561   -1.3503    5.5241 F   0  0
   -2.3493   -3.5228    4.9161 C   0  0
   -1.6119   -4.3724    4.1213 C   0  0
   -0.8309   -3.8461    3.1185 C   0  0
    1.3608   -2.0495    1.7506 O   0  0
    5.5751    1.8960    1.5417 O   0  0
    5.8653   -1.0536    0.7628 H   0  0
    5.4352   -0.2657   -0.7726 H   0  0
    3.9318   -0.1136    1.9055 H   0  0
    3.4501    0.7473    0.3698 H   0  0
    3.3752   -1.3633   -0.8547 H   0  0
    3.8502   -2.2826    0.5952 H   0  0
   -1.4393    1.2233    0.4141 H   0  0
   -3.8061    1.7404   -0.1353 H   0  0
   -5.3936   -0.0808   -0.4534 H   0  0
   -4.6830   -2.3681   -0.2389 H   0  0
   -2.3535   -2.9216    0.3037 H   0  0
   -1.4806   -0.6082    3.5372 H   0  0
   -2.9595   -3.9711    5.7045 H   0  0
   -1.6621   -5.4568    4.3041 H   0  0
   -0.2396   -4.4875    2.4766 H   0  0
  1  2  1  0  0  0
  2 24  2  0  0  0
  2  3  1  0  0  0
  3  4  1  0  0  0
  4  5  1  0  0  0
  5  6  1  0  0  0
  6  7  2  0  0  0
  7  8  1  0  0  0
  8 15  2  0  0  0
  8  9  1  0  0  0
  9 10  2  0  0  0
 10 11  1  0  0  0
 11 12  2  0  0  0
 12 13  1  0  0  0
 13 14  2  0  0  0
 14  9  1  0  0  0
 15 23  1  0  0  0
 15 16  1  0  0  0
 16 17  2  0  0  0
 17 18  1  0  0  0
 18 20  2  0  0  0
 18 19  1  0  0  0
 20 21  1  0  0  0
 21 22  2  0  0  0
 22 16  1  0  0  0
 23  6  1  0  0  0
  3 25  1  0  0  0
  3 26  1  0  0  0
  4 27  1  0  0  0
  4 28  1  0  0  0
  5 29  1  0  0  0
  5 30  1  0  0  0
 10 31  1  0  0  0
 11 32  1  0  0  0
 12 33  1  0  0  0
 13 34  1  0  0  0
 14 35  1  0  0  0
 17 36  1  0  0  0
 20 37  1  0  0  0
 21 38  1  0  0  0
 22 39  1  0  0  0
M  CHG  1   1  -1
M  END
> <pIC50>
6.921

$$$$
D5_03
  DSViewer          3D                             0

 40 42  0  0  0  0  0  0  0  0999 V2000
    8.5403    1.9776    0.8834 O   0  5
    7.5020    1.1651    0.4882 C   0  0
    6.2028    1.2595    1.1909 C   0  0
    5.1999    0.2708    0.5882 C   0  0
    3.9053    0.4293    1.3589 C   0  0
    2.9288   -0.5482    0.7542 C   0  0
    3.1361   -1.3995   -0.2659 N   0  0
    2.0256   -2.1165   -0.5255 C   0  0
    1.8510   -3.1332   -1.5469 C   0  0
    2.6475   -4.2795   -1.5200 C   0  0
    2.5094   -5.2756   -2.4804 C   0  0
    1.5645   -5.1029   -3.4619 C   0  0
    0.7799   -3.9582   -3.4760 C   0  0
    0.9111   -2.9706   -2.5306 C   0  0
    1.1062   -1.6641    0.3942 C   0  0
   -0.2439   -2.1064    0.5444 C   0  0
   -1.2901   -1.2310    0.3767 C   0  0
   -2.6185   -1.6351    0.5177 C   0  0
   -3.7025   -0.7110    0.3403 C   0  0
   -4.5923    0.0381    0.1760 N   0  0
   -2.8840   -2.9692    0.8385 C   0  0
   -1.8443   -3.8537    1.0085 C   0  0
   -0.5602   -3.4111    0.8601 C   0  0
    1.6839   -0.7422    1.1247 O   0  0
    7.6425    0.3587   -0.4455 O   0  0
    6.3843    1.0073    2.2546 H   0  0
    5.7494    2.2658    1.0674 H   0  0
    5.0676    0.4776   -0.4917 H   0  0
    5.6294   -0.7275    0.6871 H   0  0
    4.1047    0.1412    2.4143 H   0  0
    3.5086    1.4412    1.3011 H   0  0
    3.3909   -4.4133   -0.7459 H   0  0
    3.1482   -6.1661   -2.4362 H   0  0
    1.4569   -5.8836   -4.2139 H   0  0
    0.0405   -3.8383   -4.2563 H   0  0
    0.3235   -2.0637   -2.5012 H   0  0
   -1.1100   -0.1943    0.1283 H   0  0
   -3.9059   -3.2759    0.9459 H   0  0
   -2.0754   -4.8735    1.2547 H   0  0
    0.2595   -4.1107    0.9947 H   0  0
  1  2  1  0  0  0
  2 25  2  0  0  0
  2  3  1  0  0  0
  3  4  1  0  0  0
  4  5  1  0  0  0
  5  6  1  0  0  0
  6  7  2  0  0  0
  7  8  1  0  0  0
  8 15  2  0  0  0
  8  9  1  0  0  0
  9 10  2  0  0  0
 10 11  1  0  0  0
 11 12  2  0  0  0
 12 13  1  0  0  0
 13 14  2  0  0  0
 14  9  1  0  0  0
 15 24  1  0  0  0
 15 16  1  0  0  0
 16 17  2  0  0  0
 17 18  1  0  0  0
 18 21  2  0  0  0
 18 19  1  0  0  0
 19 20  3  0  0  0
 21 22  1  0  0  0
 22 23  2  0  0  0
 23 16  1  0  0  0
 24  6  1  0  0  0
  3 26  1  0  0  0
  3 27  1  0  0  0
  4 28  1  0  0  0
  4 29  1  0  0  0
  5 30  1  0  0  0
  5 31  1  0  0  0
 10 32  1  0  0  0
 11 33  1  0  0  0
 12 34  1  0  0  0
 13 35  1  0  0  0
 14 36  1  0  0  0
 17 37  1  0  0  0
 21 38  1  0  0  0
 22 39  1  0  0  0
 23 40  1  0  0  0
M  CHG  1   1  -1
M  END
> <pIC50>
6.921

$$$$
D5_04
  DSViewer          3D                             0

 41 43  0  0  0  0  0  0  0  0999 V2000
    5.6840    2.2600   -0.7604 O   0  5
    5.5990    1.0994   -0.1490 C   0  0
    5.0466   -0.1900   -0.7609 C   0  0
    3.7102   -0.4675   -0.1500 C   0  0
    3.0478   -1.7414   -0.6589 C   0  0
    1.7107   -1.8237    0.0787 C   0  0
    1.5540   -2.4828    1.2857 N   0  0
    0.2184   -2.3173    1.6315 C   0  0
   -0.3346   -2.8669    2.8964 C   0  0
    0.0044   -2.1222    4.0687 C   0  0
   -0.5456   -2.7581    5.2260 C   0  0
   -1.2508   -3.8492    5.2279 C   0  0
   -1.5742   -4.5717    4.0540 C   0  0
   -1.0321   -3.9424    2.9073 C   0  0
   -0.3648   -1.6119    0.6869 C   0  0
   -1.6979   -1.0944    0.4496 C   0  0
   -2.8711   -1.8233    0.6953 C   0  0
   -4.0639   -1.1975    0.4185 C   0  0
   -5.2738   -1.9933    0.7421 C   0  0
   -6.1945   -2.6118    0.9729 C   0  0
   -4.2533    0.0624   -0.0756 C   0  0
   -3.0435    0.8232   -0.3364 C   0  0
   -1.8960    0.1773   -0.0476 C   0  0
    0.6045   -1.3415   -0.2380 O   0  0
    5.9918    0.9319    1.0778 O   0  0
    4.9517   -0.0716   -1.8532 H   0  0
    5.7504   -1.0297   -0.5364 H   0  0
    2.9920    0.3841   -0.2417 H   0  0
    3.8698   -0.5783    0.9448 H   0  0
    3.6816   -2.5993   -0.4490 H   0  0
    2.8120   -1.6116   -1.7225 H   0  0
    0.5500   -1.2708    4.0688 H   0  0
   -0.3214   -2.2307    6.1960 H   0  0
   -1.6768   -4.3202    6.1262 H   0  0
   -2.1082   -5.4413    4.0127 H   0  0
   -1.2971   -4.5174    1.9936 H   0  0
   -2.7709   -2.8172    1.0604 H   0  0
   -7.1037   -3.2207    1.1814 H   0  0
   -5.1826    0.5138   -0.2904 H   0  0
   -3.1985    1.8098   -0.7265 H   0  0
   -0.9414    0.7294   -0.2320 H   0  0
  1  2  1  0  0  0
  2 25  2  0  0  0
  2  3  1  0  0  0
  3  4  1  0  0  0
  4  5  1  0  0  0
  5  6  1  0  0  0
  6  7  2  0  0  0
  7  8  1  0  0  0
  8 15  2  0  0  0
  8  9  1  0  0  0
  9 10  2  0  0  0
 10 11  1  0  0  0
 11 12  2  0  0  0
 12 13  1  0  0  0
 13 14  2  0  0  0
 14  9  1  0  0  0
 15 24  1  0  0  0
 15 16  1  0  0  0
 16 17  2  0  0  0
 17 18  1  0  0  0
 18 21  2  0  0  0
 18 19  1  0  0  0
 19 20  3  0  0  0
 21 22  1  0  0  0
 22 23  2  0  0  0
 23 16  1  0  0  0
 24  6  1  0  0  0
  3 26  1  0  0  0
  3 27  1  0  0  0
  4 28  1  0  0  0
  4 29  1  0  0  0
  5 30  1  0  0  0
  5 31  1  0  0  0
 10 32  1  0  0  0
 11 33  1  0  0  0
 12 34  1  0  0  0
 13 35  1  0  0  0
 14 36  1  0  0  0
 17 37  1  0  0  0
 20 38  1  0  0  0
 21 39  1  0  0  0
 22 40  1  0  0  0
 23 41  1  0  0  0
M  CHG  1   1  -1
M  END
> <pIC50>
6.854

$$$$
D5_05
  DSViewer          3D                             0

 40 43  0  0  0  0  0  0  0  0999 V2000
    5.6349    1.4754    1.4903 Cl  0  0
    5.0027    0.2116    0.4575 C   0  0
    5.7804   -0.4029   -0.5037 C   0  0
    7.4430    0.1236   -0.6654 Cl  0  0
    5.2329   -1.3987   -1.2966 C   0  0
    3.9222   -1.8057   -1.1610 C   0  0
    3.1467   -1.1980   -0.2077 C   0  0
    1.7606   -1.5727   -0.0069 C   0  0
    1.3000   -2.8020    0.3941 C   0  0
    2.1090   -3.9497    0.6908 C   0  0
    1.9631   -5.0947   -0.0419 C   0  0
    2.7336   -6.2277    0.2208 C   0  0
    3.6448   -6.1468    1.2453 C   0  0
    3.8084   -5.0036    1.9960 C   0  0
    3.0273   -3.9077    1.7033 C   0  0
   -0.0080   -2.7418    0.4580 O   0  0
   -0.4430   -1.5314    0.1189 C   0  0
   -1.8357   -1.1334    0.0858 C   0  0
   -2.8280   -2.0160    0.4152 C   0  0
   -4.1782   -1.6424    0.3871 C   0  0
   -4.5224   -0.3631    0.0218 C   0  0
   -3.5201    0.5361   -0.3133 C   0  0
   -3.8642    1.8838   -0.6994 C   0  0
   -2.8655    2.7736   -1.0316 O   0  5
   -5.0637    2.2383   -0.7310 O   0  0
   -2.1903    0.1401   -0.2771 C   0  0
    0.6611   -0.8171   -0.1667 N   0  0
    3.7002   -0.1933    0.5919 C   0  0
    5.8438   -1.8673   -2.0373 H   0  0
    3.4657   -2.5795   -1.7642 H   0  0
    1.2501   -5.1959   -0.8626 H   0  0
    2.5989   -7.1214   -0.3737 H   0  0
    4.2525   -7.0293    1.4578 H   0  0
    4.5177   -4.9295    2.7992 H   0  0
    3.1556   -3.0158    2.2895 H   0  0
   -2.6329   -3.0380    0.7120 H   0  0
   -4.9745   -2.3263    0.6440 H   0  0
   -5.5557   -0.0770    0.0003 H   0  0
   -1.4458    0.8555   -0.5403 H   0  0
    3.1015    0.2959    1.3484 H   0  0
  1  2  1  0  0  0
  2  3  2  0  0  0
  3  5  1  0  0  0
  3  4  1  0  0  0
  5  6  2  0  0  0
  6  7  1  0  0  0
  7 28  2  0  0  0
  7  8  1  0  0  0
  8  9  2  0  0  0
  9 16  1  0  0  0
  9 10  1  0  0  0
 10 11  2  0  0  0
 11 12  1  0  0  0
 12 13  2  0  0  0
 13 14  1  0  0  0
 14 15  2  0  0  0
 15 10  1  0  0  0
 16 17  1  0  0  0
 17 27  2  0  0  0
 17 18  1  0  0  0
 18 19  2  0  0  0
 19 20  1  0  0  0
 20 21  2  0  0  0
 21 22  1  0  0  0
 22 26  2  0  0  0
 22 23  1  0  0  0
 23 25  2  0  0  0
 23 24  1  0  0  0
 26 18  1  0  0  0
 27  8  1  0  0  0
 28  2  1  0  0  0
  5 29  1  0  0  0
  6 30  1  0  0  0
 11 31  1  0  0  0
 12 32  1  0  0  0
 13 33  1  0  0  0
 14 34  1  0  0  0
 15 35  1  0  0  0
 19 36  1  0  0  0
 20 37  1  0  0  0
 21 38  1  0  0  0
 26 39  1  0  0  0
 28 40  1  0  0  0
M  CHG  1  24  -1
M  END
> <pIC50>
6.824

$$$$
D5_06
  DSViewer          3D                             0

 36 38  0  0  0  0  0  0  0  0999 V2000
    5.4996   -2.1831   -2.0071 O   0  5
    5.1545   -1.0048   -1.3462 C   0  0
    3.8592   -0.8586   -0.6156 C   0  0
    3.0800   -2.1592   -0.7454 C   0  0
    1.7825   -1.9809    0.0003 C   0  0
    0.6203   -1.5171   -0.4925 N   0  0
   -0.3264   -1.5024    0.4919 C   0  0
   -1.7114   -1.0578    0.3302 C   0  0
   -1.9667    0.2859    0.0244 C   0  0
   -3.2234    0.7912   -0.1462 C   0  0
   -3.3957    2.4886   -0.5247 Cl  0  0
   -4.3098   -0.0315   -0.0186 C   0  0
   -5.9135    0.6376   -0.2411 Cl  0  0
   -4.0845   -1.3545    0.2811 C   0  0
   -2.7942   -1.8671    0.4550 C   0  0
    0.3298   -1.9826    1.6032 C   0  0
   -0.2683   -2.1556    2.9191 C   0  0
   -0.0112   -1.2934    3.9642 C   0  0
   -0.5543   -1.4272    5.2225 C   0  0
   -1.4145   -2.5012    5.4455 C   0  0
   -1.6878   -3.3776    4.4170 C   0  0
   -1.1317   -3.2241    3.1629 C   0  0
    1.5786   -2.2536    1.2647 O   0  0
    5.9519   -0.0303   -1.3602 O   0  0
    4.0958   -0.7052    0.4591 H   0  0
    3.3014    0.0108   -0.9678 H   0  0
    3.6795   -2.9591   -0.2891 H   0  0
    2.8333   -2.3713   -1.7977 H   0  0
   -1.0902    0.9158   -0.0715 H   0  0
   -4.9462   -1.9975    0.3798 H   0  0
   -2.6577   -2.9135    0.6879 H   0  0
    0.6539   -0.4656    3.7865 H   0  0
   -0.3047   -0.7099    5.9904 H   0  0
   -1.8194   -2.5738    6.4384 H   0  0
   -2.3660   -4.1958    4.6514 H   0  0
   -1.3909   -3.9506    2.4141 H   0  0
  1  2  1  0  0  0
  2 24  2  0  0  0
  2  3  1  0  0  0
  3  4  1  0  0  0
  4  5  1  0  0  0
  5  6  2  0  0  0
  6  7  1  0  0  0
  7 16  2  0  0  0
  7  8  1  0  0  0
  8  9  2  0  0  0
  9 10  1  0  0  0
 10 12  2  0  0  0
 10 11  1  0  0  0
 12 14  1  0  0  0
 12 13  1  0  0  0
 14 15  2  0  0  0
 15  8  1  0  0  0
 16 23  1  0  0  0
 16 17  1  0  0  0
 17 18  2  0  0  0
 18 19  1  0  0  0
 19 20  2  0  0  0
 20 21  1  0  0  0
 21 22  2  0  0  0
 22 17  1  0  0  0
 23  5  1  0  0  0
  3 25  1  0  0  0
  3 26  1  0  0  0
  4 27  1  0  0  0
  4 28  1  0  0  0
  9 29  1  0  0  0
 14 30  1  0  0  0
 15 31  1  0  0  0
 18 32  1  0  0  0
 19 33  1  0  0  0
 20 34  1  0  0  0
 21 35  1  0  0  0
 22 36  1  0  0  0
M  CHG  1   1  -1
M  END
> <pIC50>
6.658

$$$$
D5_07
  DSViewer          3D                             0

 39 41  0  0  0  0  0  0  0  0999 V2000
    8.8066    1.7606    0.9027 O   0  5
    7.6477    1.1454    0.4639 C   0  0
    6.4248    1.0859    1.2724 C   0  0
    5.3000    0.3591    0.5599 C   0  0
    4.1197    0.3730    1.4929 C   0  0
    2.9543   -0.3196    0.8876 C   0  0
    2.8676   -0.9101   -0.3150 N   0  0
    1.6247   -1.4222   -0.4739 C   0  0
    1.1731   -2.1347   -1.6623 C   0  0
    0.2738   -1.6263   -2.5492 C   0  0
   -0.1332   -2.3520   -3.6698 C   0  0
    0.3874   -3.6087   -3.8814 C   0  0
    1.2991   -4.1627   -3.0119 C   0  0
    1.6765   -3.4165   -1.9172 C   0  0
    0.9510   -1.1204    0.6842 C   0  0
   -0.4337   -1.4710    0.9799 C   0  0
   -1.4941   -0.8894    0.3343 C   0  0
   -2.7813   -1.2794    0.6664 C   0  0
   -4.1608   -0.5397   -0.1570 Cl  0  0
   -3.0196   -2.2367    1.6291 C   0  0
   -1.9467   -2.8158    2.2730 C   0  0
   -0.6668   -2.4266    1.9414 C   0  0
    1.7893   -0.4631    1.4613 O   0  0
    7.6512    0.6193   -0.6734 O   0  0
    6.6215    0.5591    2.2335 H   0  0
    6.0891    2.1116    1.5607 H   0  0
    5.6282   -0.6744    0.3399 H   0  0
    5.0065    0.8797   -0.3698 H   0  0
    4.3809   -0.0791    2.4666 H   0  0
    3.8554    1.4376    1.6704 H   0  0
   -0.1430   -0.6392   -2.4027 H   0  0
   -0.8480   -1.8874   -4.3287 H   0  0
    0.0673   -4.1772   -4.7604 H   0  0
    1.7096   -5.1684   -3.1895 H   0  0
    2.3984   -3.8466   -1.2219 H   0  0
   -1.3428   -0.1327   -0.4221 H   0  0
   -4.0484   -2.5404    1.8859 H   0  0
   -2.1232   -3.5814    3.0437 H   0  0
    0.1513   -2.9191    2.4843 H   0  0
  1  2  1  0  0  0
  2 24  2  0  0  0
  2  3  1  0  0  0
  3  4  1  0  0  0
  4  5  1  0  0  0
  5  6  1  0  0  0
  6  7  2  0  0  0
  7  8  1  0  0  0
  8 15  2  0  0  0
  8  9  1  0  0  0
  9 10  2  0  0  0
 10 11  1  0  0  0
 11 12  2  0  0  0
 12 13  1  0  0  0
 13 14  2  0  0  0
 14  9  1  0  0  0
 15 23  1  0  0  0
 15 16  1  0  0  0
 16 17  2  0  0  0
 17 18  1  0  0  0
 18 20  2  0  0  0
 18 19  1  0  0  0
 20 21  1  0  0  0
 21 22  2  0  0  0
 22 16  1  0  0  0
 23  6  1  0  0  0
  3 25  1  0  0  0
  3 26  1  0  0  0
  4 27  1  0  0  0
  4 28  1  0  0  0
  5 29  1  0  0  0
  5 30  1  0  0  0
 10 31  1  0  0  0
 11 32  1  0  0  0
 12 33  1  0  0  0
 13 34  1  0  0  0
 14 35  1  0  0  0
 17 36  1  0  0  0
 20 37  1  0  0  0
 21 38  1  0  0  0
 22 39  1  0  0  0
M  CHG  1   1  -1
M  END
> <pIC50>
6.638

$$$$
D5_08
  DSViewer          3D                             0

 39 41  0  0  0  0  0  0  0  0999 V2000
    7.3784    1.3165    0.5392 O   0  5
    6.0434    1.0273    0.7833 C   0  0
    5.3918   -0.2062    0.2748 C   0  0
    3.9465   -0.2478    0.6988 C   0  0
    3.2663   -1.5077    0.1840 C   0  0
    1.8399   -1.5287    0.6149 C   0  0
    0.7869   -1.0391   -0.0161 N   0  0
   -0.3267   -1.2741    0.7308 C   0  0
   -1.6830   -0.9099    0.4164 C   0  0
   -2.0280    0.4008    0.2693 C   0  0
   -3.3115    0.7978   -0.0323 C   0  0
   -4.2707   -0.1733   -0.1882 C   0  0
   -3.9722   -1.4991   -0.0505 C   0  0
   -2.6516   -1.8647    0.2574 C   0  0
    0.1166   -1.9401    1.8604 C   0  0
   -0.6624   -2.4259    2.9869 C   0  0
   -1.3453   -1.5184    3.7660 C   0  0
   -1.2837   -0.2192    3.4793 F   0  0
   -2.1080   -1.9131    4.8566 C   0  0
   -2.2058   -3.2281    5.1945 C   0  0
   -1.5342   -4.1615    4.4346 C   0  0
   -1.6508   -5.4579    4.7948 F   0  0
   -0.7778   -3.7518    3.3500 C   0  0
    1.4109   -2.0497    1.7114 O   0  0
    5.3713    1.8464    1.4603 O   0  0
    5.4344   -0.2503   -0.8446 H   0  0
    5.9068   -1.1301    0.6289 H   0  0
    3.4382    0.6123    0.2538 H   0  0
    3.8693   -0.2714    1.8043 H   0  0
    3.3152   -1.6061   -0.9086 H   0  0
    3.8085   -2.3602    0.6374 H   0  0
   -1.2778    1.1614    0.3915 H   0  0
   -3.5674    1.8409   -0.1451 H   0  0
   -5.2738    0.1693   -0.4256 H   0  0
   -4.7244   -2.2494   -0.1734 H   0  0
   -2.4699   -2.9189    0.3549 H   0  0
   -2.6344   -1.1574    5.4488 H   0  0
   -2.8117   -3.5169    6.0577 H   0  0
   -0.2506   -4.4836    2.7535 H   0  0
  1  2  1  0  0  0
  2 25  2  0  0  0
  2  3  1  0  0  0
  3  4  1  0  0  0
  4  5  1  0  0  0
  5  6  1  0  0  0
  6  7  2  0  0  0
  7  8  1  0  0  0
  8 15  2  0  0  0
  8  9  1  0  0  0
  9 10  2  0  0  0
 10 11  1  0  0  0
 11 12  2  0  0  0
 12 13  1  0  0  0
 13 14  2  0  0  0
 14  9  1  0  0  0
 15 24  1  0  0  0
 15 16  1  0  0  0
 16 17  2  0  0  0
 17 19  1  0  0  0
 17 18  1  0  0  0
 19 20  2  0  0  0
 20 21  1  0  0  0
 21 23  2  0  0  0
 21 22  1  0  0  0
 23 16  1  0  0  0
 24  6  1  0  0  0
  3 26  1  0  0  0
  3 27  1  0  0  0
  4 28  1  0  0  0
  4 29  1  0  0  0
  5 30  1  0  0  0
  5 31  1  0  0  0
 10 32  1  0  0  0
 11 33  1  0  0  0
 12 34  1  0  0  0
 13 35  1  0  0  0
 14 36  1  0  0  0
 19 37  1  0  0  0
 20 38  1  0  0  0
 23 39  1  0  0  0
M  CHG  1   1  -1
M  END
> <pIC50>
6.553

$$$$
D5_09
  DSViewer          3D                             0

 39 41  0  0  0  0  0  0  0  0999 V2000
    6.2886    1.6220   -1.2030 O   0  5
    5.8098    0.7316   -0.2139 C   0  0
    5.2342   -0.5547   -0.7295 C   0  0
    3.8760   -0.6820   -0.1152 C   0  0
    3.1271   -1.9370   -0.5034 C   0  0
    1.8042   -1.8602    0.1483 C   0  0
    0.6797   -1.3390   -0.3887 N   0  0
   -0.3272   -1.4429    0.4992 C   0  0
   -1.7126   -1.0122    0.3433 C   0  0
   -1.9923    0.3290    0.0454 C   0  0
   -3.2747    0.7994   -0.1138 C   0  0
   -4.3451   -0.0601    0.0203 C   0  0
   -4.0994   -1.3880    0.3142 C   0  0
   -2.8045   -1.8407    0.4688 C   0  0
    0.2295   -2.0520    1.6064 C   0  0
   -0.4070   -2.4019    2.8555 C   0  0
   -0.3786   -1.5149    3.9034 C   0  0
    0.2199   -0.3182    3.8551 F   0  0
   -1.0042   -1.8607    5.0967 C   0  0
   -1.6373   -3.0598    5.2325 C   0  0
   -1.6763   -3.9616    4.1924 C   0  0
   -1.0489   -3.5975    3.0174 C   0  0
    1.5032   -2.2746    1.3334 O   0  0
    5.8538    0.9854    1.0126 O   0  0
    5.9242   -1.3566   -0.3639 H   0  0
    5.1374   -0.5440   -1.8151 H   0  0
    3.2710    0.1998   -0.4137 H   0  0
    4.0257   -0.6891    0.9940 H   0  0
    3.0199   -2.0332   -1.6023 H   0  0
    3.7514   -2.7957   -0.1609 H   0  0
   -1.1422    0.9925   -0.0637 H   0  0
   -3.4787    1.8556   -0.3492 H   0  0
   -5.3697    0.2892   -0.0954 H   0  0
   -4.9048   -2.1210    0.4368 H   0  0
   -2.6347   -2.8760    0.6999 H   0  0
   -1.0065   -1.1859    5.9420 H   0  0
   -2.1352   -3.3675    6.1534 H   0  0
   -2.1648   -4.9116    4.2511 H   0  0
   -1.0615   -4.2951    2.1633 H   0  0
  1  2  1  0  0  0
  2 24  2  0  0  0
  2  3  1  0  0  0
  3  4  1  0  0  0
  4  5  1  0  0  0
  5  6  1  0  0  0
  6  7  2  0  0  0
  7  8  1  0  0  0
  8 15  2  0  0  0
  8  9  1  0  0  0
  9 10  2  0  0  0
 10 11  1  0  0  0
 11 12  2  0  0  0
 12 13  1  0  0  0
 13 14  2  0  0  0
 14  9  1  0  0  0
 15 23  1  0  0  0
 15 16  1  0  0  0
 16 17  2  0  0  0
 17 19  1  0  0  0
 17 18  1  0  0  0
 19 20  2  0  0  0
 20 21  1  0  0  0
 21 22  2  0  0  0
 22 16  1  0  0  0
 23  6  1  0  0  0
  3 25  1  0  0  0
  3 26  1  0  0  0
  4 27  1  0  0  0
  4 28  1  0  0  0
  5 29  1  0  0  0
  5 30  1  0  0  0
 10 31  1  0  0  0
 11 32  1  0  0  0
 12 33  1  0  0  0
 13 34  1  0  0  0
 14 35  1  0  0  0
 19 36  1  0  0  0
 20 37  1  0  0  0
 21 38  1  0  0  0
 22 39  1  0  0  0
M  CHG  1   1  -1
M  END
> <pIC50>
6.509

$$$$
D5_10
  DSViewer          3D                             0

 43 45  0  0  0  0  0  0  0  0999 V2000
   -4.3562   -1.3112    0.9017 O   0  5
   -4.6054   -0.2761    0.0254 C   0  0
   -3.6353    0.7525   -0.3994 C   0  0
   -2.2468    0.5264    0.1263 C   0  0
   -1.7076   -0.7705   -0.3677 C   0  0
   -0.3128   -1.0232    0.1446 C   0  0
    0.0060   -1.6592    1.2831 N   0  0
    1.3509   -1.6896    1.4006 C   0  0
    2.0481   -2.3022    2.5171 C   0  0
    2.7133   -1.5465    3.4529 C   0  0
    3.3603   -2.2185    4.4876 C   0  0
    3.3676   -3.5851    4.6197 C   0  0
    2.6939   -4.3241    3.6698 C   0  0
    2.0431   -3.6938    2.6331 C   0  0
    1.8521   -1.0472    0.2895 C   0  0
    3.2655   -0.8332   -0.0217 C   0  0
    4.0862    0.0295    0.6712 C   0  0
    5.4255    0.1976    0.3457 C   0  0
    6.1904    1.0771    1.0801 O   0  0
    7.5432    1.3127    0.8288 C   0  0
    5.9579   -0.5050   -0.6876 C   0  0
    5.1834   -1.3792   -1.4122 C   0  0
    3.8591   -1.5251   -1.0665 C   0  0
    0.8036   -0.6776   -0.4132 O   0  0
   -5.7693   -0.1907   -0.4642 O   0  0
   -4.0163    1.7723   -0.1795 H   0  0
   -3.5571    0.6466   -1.5223 H   0  0
   -2.2064    0.5129    1.2356 H   0  0
   -1.6330    1.3949   -0.1871 H   0  0
   -2.3237   -1.6235   -0.1102 H   0  0
   -1.6767   -0.7138   -1.4953 H   0  0
    2.7447   -0.4667    3.4131 H   0  0
    3.8886   -1.6359    5.2314 H   0  0
    3.8788   -4.0953    5.4356 H   0  0
    2.7074   -5.4061    3.7863 H   0  0
    1.5264   -4.3173    1.9096 H   0  0
    3.6529    0.6022    1.5051 H   0  0
    8.1122    0.3867    0.5600 H   0  0
    7.7370    2.0426    0.0238 H   0  0
    7.9831    1.7579    1.7560 H   0  0
    6.9958   -0.4115   -0.9829 H   0  0
    5.6230   -1.9449   -2.2485 H   0  0
    3.2368   -2.2063   -1.6238 H   0  0
  1  2  1  0  0  0
  2 25  2  0  0  0
  2  3  1  0  0  0
  3  4  1  0  0  0
  4  5  1  0  0  0
  5  6  1  0  0  0
  6  7  2  0  0  0
  7  8  1  0  0  0
  8 15  2  0  0  0
  8  9  1  0  0  0
  9 10  2  0  0  0
 10 11  1  0  0  0
 11 12  2  0  0  0
 12 13  1  0  0  0
 13 14  2  0  0  0
 14  9  1  0  0  0
 15 24  1  0  0  0
 15 16  1  0  0  0
 16 17  2  0  0  0
 17 18  1  0  0  0
 18 21  2  0  0  0
 18 19  1  0  0  0
 19 20  1  0  0  0
 21 22  1  0  0  0
 22 23  2  0  0  0
 23 16  1  0  0  0
 24  6  1  0  0  0
  3 26  1  0  0  0
  3 27  1  0  0  0
  4 28  1  0  0  0
  4 29  1  0  0  0
  5 30  1  0  0  0
  5 31  1  0  0  0
 10 32  1  0  0  0
 11 33  1  0  0  0
 12 34  1  0  0  0
 13 35  1  0  0  0
 14 36  1  0  0  0
 17 37  1  0  0  0
 20 38  1  0  0  0
 20 39  1  0  0  0
 20 40  1  0  0  0
 21 41  1  0  0  0
 22 42  1  0  0  0
 23 43  1  0  0  0
M  CHG  1   1  -1
M  END
> <pIC50>
6.509

$$$$
D5_11
  DSViewer          3D                             0

 42 44  0  0  0  0  0  0  0  0999 V2000
    4.3562    0.7168    1.4384 O   0  5
    5.3750    0.3621    0.5769 C   0  0
    5.1623   -0.3063   -0.7196 C   0  0
    3.7135   -0.6326   -0.9671 C   0  0
    3.1277   -1.5551    0.0463 C   0  0
    1.6844   -1.8224   -0.2888 C   0  0
    1.2672   -2.8136   -1.0638 N   0  0
   -0.0825   -2.7383   -1.1356 C   0  0
   -0.9396   -3.6119   -1.8639 C   0  0
   -0.9940   -4.9581   -1.5815 C   0  0
   -1.8398   -5.8092   -2.3014 C   0  0
   -2.6355   -5.3134   -3.3086 C   0  0
   -2.5856   -3.9792   -3.5929 C   0  0
   -1.7387   -3.1314   -2.8709 C   0  0
   -0.4800   -1.6613   -0.3741 C   0  0
   -1.8112   -1.1618   -0.1293 C   0  0
   -2.1543    0.1356   -0.5266 C   0  0
   -3.4125    0.6703   -0.3196 C   0  0
   -3.6841    2.0640   -0.7787 C   0  0
   -4.3763   -0.0872    0.2989 C   0  0
   -4.0547   -1.3785    0.7010 C   0  0
   -2.8001   -1.8943    0.4877 C   0  0
    0.6348   -1.1605    0.1030 O   0  0
    6.5606    0.6266    0.9196 O   0  0
    5.7766   -1.2282   -0.8217 H   0  0
    5.4575    0.4310   -1.5066 H   0  0
    3.0967    0.2930   -1.0031 H   0  0
    3.6260   -1.1389   -1.9596 H   0  0
    3.1211   -1.1915    1.0834 H   0  0
    3.6524   -2.5513    0.0497 H   0  0
   -0.3656   -5.3405   -0.7887 H   0  0
   -1.8904   -6.8638   -2.0895 H   0  0
   -3.2992   -5.9868   -3.8723 H   0  0
   -3.1993   -3.5720   -4.3757 H   0  0
   -1.7345   -2.1055   -3.1276 H   0  0
   -1.3975    0.7399   -1.0159 H   0  0
   -2.9116    2.3804   -1.5036 H   0  0
   -4.6843    2.1642   -1.2413 H   0  0
   -3.5907    2.7437    0.1093 H   0  0
   -5.3495    0.3522    0.4489 H   0  0
   -4.8513   -1.9367    1.1854 H   0  0
   -2.5488   -2.8907    0.7969 H   0  0
  1  2  1  0  0  0
  2 24  2  0  0  0
  2  3  1  0  0  0
  3  4  1  0  0  0
  4  5  1  0  0  0
  5  6  1  0  0  0
  6  7  2  0  0  0
  7  8  1  0  0  0
  8 15  2  0  0  0
  8  9  1  0  0  0
  9 10  2  0  0  0
 10 11  1  0  0  0
 11 12  2  0  0  0
 12 13  1  0  0  0
 13 14  2  0  0  0
 14  9  1  0  0  0
 15 23  1  0  0  0
 15 16  1  0  0  0
 16 17  2  0  0  0
 17 18  1  0  0  0
 18 20  2  0  0  0
 18 19  1  0  0  0
 20 21  1  0  0  0
 21 22  2  0  0  0
 22 16  1  0  0  0
 23  6  1  0  0  0
  3 25  1  0  0  0
  3 26  1  0  0  0
  4 27  1  0  0  0
  4 28  1  0  0  0
  5 29  1  0  0  0
  5 30  1  0  0  0
 10 31  1  0  0  0
 11 32  1  0  0  0
 12 33  1  0  0  0
 13 34  1  0  0  0
 14 35  1  0  0  0
 17 36  1  0  0  0
 19 37  1  0  0  0
 19 38  1  0  0  0
 19 39  1  0  0  0
 20 40  1  0  0  0
 21 41  1  0  0  0
 22 42  1  0  0  0
M  CHG  1   1  -1
M  END
> <pIC50>
6.509

$$$$
D5_12
  DSViewer          3D                             0

 42 44  0  0  0  0  0  0  0  0999 V2000
    7.6646    1.1620    0.7154 O   0  5
    6.2800    1.3134    0.5329 C   0  0
    5.3924    0.2978    1.0259 C   0  0
    3.9606    0.3296    0.4272 C   0  0
    3.1924   -0.7505    1.1149 C   0  0
    1.8352   -1.0490    0.6294 C   0  0
    1.6136   -2.1061   -0.2524 N   0  0
    0.3080   -2.2015   -0.5543 C   0  0
   -0.2943   -3.2626   -1.3674 C   0  0
    0.2070   -4.5537   -1.1412 C   0  0
   -0.2133   -5.6701   -1.7652 C   0  0
   -1.2404   -5.5139   -2.7146 C   0  0
   -1.7449   -4.2584   -2.9469 C   0  0
   -1.2724   -3.1116   -2.2675 C   0  0
   -0.2820   -1.1834    0.1508 C   0  0
   -1.7179   -0.8607    0.1460 C   0  0
   -2.1575    0.4167   -0.1159 C   0  0
   -3.4739    0.7478   -0.1269 C   0  0
   -3.9516    2.1220   -0.4479 C   0  0
   -3.8890    2.8260    0.7377 F   0  0
   -3.1915    2.6533   -1.4439 F   0  0
   -5.2800    2.1109   -0.8045 F   0  0
   -4.4332   -0.2016    0.1313 C   0  0
   -3.9891   -1.4958    0.3971 C   0  0
   -2.6537   -1.8203    0.4066 C   0  0
    0.6856   -0.5569    0.8201 O   0  0
    5.8908    2.3510   -0.0800 O   0  0
    5.2886    0.3540    2.1404 H   0  0
    5.7927   -0.7418    0.8359 H   0  0
    4.0629    0.2574   -0.6552 H   0  0
    3.5534    1.3213    0.7695 H   0  0
    3.2273   -0.5986    2.2183 H   0  0
    3.8462   -1.6850    1.0054 H   0  0
    1.0138   -4.6348   -0.3997 H   0  0
    0.2178   -6.6494   -1.5449 H   0  0
   -1.5627   -6.4297   -3.2261 H   0  0
   -2.5518   -4.1319   -3.6732 H   0  0
   -1.7024   -2.1534   -2.5059 H   0  0
   -1.4415    1.2461   -0.3263 H   0  0
   -5.4841    0.0583    0.1366 H   0  0
   -4.7171   -2.2589    0.5963 H   0  0
   -2.3195   -2.8522    0.6209 H   0  0
  1  2  1  0  0  0
  2 27  2  0  0  0
  2  3  1  0  0  0
  3  4  1  0  0  0
  4  5  1  0  0  0
  5  6  1  0  0  0
  6  7  2  0  0  0
  7  8  1  0  0  0
  8 15  2  0  0  0
  8  9  1  0  0  0
  9 10  2  0  0  0
 10 11  1  0  0  0
 11 12  2  0  0  0
 12 13  1  0  0  0
 13 14  2  0  0  0
 14  9  1  0  0  0
 15 26  1  0  0  0
 15 16  1  0  0  0
 16 17  2  0  0  0
 17 18  1  0  0  0
 18 23  2  0  0  0
 18 19  1  0  0  0
 19 22  1  0  0  0
 19 21  1  0  0  0
 19 20  1  0  0  0
 23 24  1  0  0  0
 24 25  2  0  0  0
 25 16  1  0  0  0
 26  6  1  0  0  0
  3 28  1  0  0  0
  3 29  1  0  0  0
  4 30  1  0  0  0
  4 31  1  0  0  0
  5 32  1  0  0  0
  5 33  1  0  0  0
 10 34  1  0  0  0
 11 35  1  0  0  0
 12 36  1  0  0  0
 13 37  1  0  0  0
 14 38  1  0  0  0
 17 39  1  0  0  0
 23 40  1  0  0  0
 24 41  1  0  0  0
 25 42  1  0  0  0
M  CHG  1   1  -1
M  END
> <pIC50>
6.387

$$$$
D5_13
  DSViewer          3D                             0

 34 36  0  0  0  0  0  0  0  0999 V2000
   -5.7089    1.3250   -1.1904 O   0  0
   -5.5044    0.7935   -0.0675 C   0  0
   -6.5006    0.7592    0.9114 O   0  5
   -4.1948    0.1998    0.2153 C   0  0
   -3.2407    0.2149   -0.6783 C   0  0
   -1.9216   -0.3902   -0.3757 C   0  0
   -0.8622   -0.4411   -1.2008 N   0  0
    0.1547   -1.0630   -0.5862 C   0  0
    1.4908   -1.3572   -1.0642 C   0  0
    2.6437   -0.8612   -0.4992 C   0  0
    3.8990   -1.1686   -0.9885 C   0  0
    5.3322   -0.5215   -0.2466 Cl  0  0
    3.9889   -2.0043   -2.0839 C   0  0
    5.5945   -2.3728   -2.6774 Cl  0  0
    2.8508   -2.5296   -2.6884 C   0  0
    1.6249   -2.1881   -2.1566 C   0  0
   -0.3204   -1.4065    0.6831 C   0  0
    0.4402   -2.1039    1.7132 C   0  0
    0.9187   -3.3810    1.5527 C   0  0
    1.6430   -4.0285    2.5492 C   0  0
    1.8873   -3.3753    3.7258 C   0  0
    1.4118   -2.0927    3.8985 C   0  0
    0.6822   -1.4429    2.8923 C   0  0
   -1.5540   -0.9746    0.7293 O   0  0
   -4.0001   -0.2601    1.1701 H   0  0
   -3.3879    0.6624   -1.6457 H   0  0
    2.5552   -0.2108    0.3552 H   0  0
    2.9892   -3.1742   -3.5383 H   0  0
    0.7491   -2.6034   -2.6365 H   0  0
    0.7576   -3.9457    0.6470 H   0  0
    2.0169   -5.0365    2.4143 H   0  0
    2.4445   -3.8358    4.5288 H   0  0
    1.6040   -1.5721    4.8305 H   0  0
    0.3550   -0.4410    3.1271 H   0  0
  1  2  2  0  0  0
  2  4  1  0  0  0
  2  3  1  0  0  0
  4  5  2  0  0  0
  5  6  1  0  0  0
  6  7  2  0  0  0
  7  8  1  0  0  0
  8 17  2  0  0  0
  8  9  1  0  0  0
  9 10  2  0  0  0
 10 11  1  0  0  0
 11 13  2  0  0  0
 11 12  1  0  0  0
 13 15  1  0  0  0
 13 14  1  0  0  0
 15 16  2  0  0  0
 16  9  1  0  0  0
 17 24  1  0  0  0
 17 18  1  0  0  0
 18 19  2  0  0  0
 19 20  1  0  0  0
 20 21  2  0  0  0
 21 22  1  0  0  0
 22 23  2  0  0  0
 23 18  1  0  0  0
 24  6  1  0  0  0
  4 25  1  0  0  0
  5 26  1  0  0  0
 10 27  1  0  0  0
 15 28  1  0  0  0
 16 29  1  0  0  0
 19 30  1  0  0  0
 20 31  1  0  0  0
 21 32  1  0  0  0
 22 33  1  0  0  0
 23 34  1  0  0  0
M  CHG  1   3  -1
M  END
> <pIC50>
6.292

$$$$
D5_14
  DSViewer          3D                             0

 39 41  0  0  0  0  0  0  0  0999 V2000
    5.7953   -0.8107   -0.5429 O   0  5
    5.2156    0.1282    0.3116 C   0  0
    3.8048   -0.0408    0.7346 C   0  0
    3.2253   -1.2903    0.1097 C   0  0
    1.8268   -1.4215    0.5534 C   0  0
    0.7612   -0.9018   -0.0828 N   0  0
   -0.3282   -1.2473    0.6456 C   0  0
   -1.7215   -0.9350    0.3903 C   0  0
   -2.7092   -1.8591    0.1410 C   0  0
   -4.0221   -1.5003   -0.0955 C   0  0
   -5.0407   -2.5304   -0.3572 C   0  0
   -6.0024   -2.4371    0.6447 F   0  0
   -5.6449   -2.2959   -1.5924 F   0  0
   -4.4826   -3.8101   -0.3241 F   0  0
   -4.3836   -0.1876   -0.0881 C   0  0
   -6.0383    0.3423   -0.3817 Cl  0  0
   -3.4205    0.7652    0.1581 C   0  0
   -2.1040    0.3914    0.3944 C   0  0
    0.1177   -1.9737    1.7122 C   0  0
   -0.7067   -2.5553    2.7666 C   0  0
   -1.4664   -1.7907    3.6216 C   0  0
   -2.2383   -2.3546    4.6105 C   0  0
   -2.2802   -3.7335    4.7851 C   0  0
   -1.5253   -4.5179    3.9379 C   0  0
   -0.7598   -3.9274    2.9545 C   0  0
    1.4291   -2.0578    1.6216 O   0  0
    5.8995    1.0954    0.7041 O   0  0
    3.7455   -0.1589    1.8232 H   0  0
    3.1582    0.8032    0.4056 H   0  0
    3.2220   -1.2370   -1.0014 H   0  0
    3.8200   -2.1872    0.3981 H   0  0
   -2.4098   -2.9026    0.1375 H   0  0
   -3.7066    1.8242    0.1651 H   0  0
   -1.4066    1.2009    0.5799 H   0  0
   -1.4625   -0.7191    3.5203 H   0  0
   -2.8219   -1.7529    5.2665 H   0  0
   -2.8964   -4.1725    5.5734 H   0  0
   -1.5773   -5.5869    4.0972 H   0  0
   -0.1643   -4.5460    2.2860 H   0  0
  1  2  1  0  0  0
  2 27  2  0  0  0
  2  3  1  0  0  0
  3  4  1  0  0  0
  4  5  1  0  0  0
  5  6  2  0  0  0
  6  7  1  0  0  0
  7 19  2  0  0  0
  7  8  1  0  0  0
  8  9  2  0  0  0
  9 10  1  0  0  0
 10 15  2  0  0  0
 10 11  1  0  0  0
 11 14  1  0  0  0
 11 13  1  0  0  0
 11 12  1  0  0  0
 15 17  1  0  0  0
 15 16  1  0  0  0
 17 18  2  0  0  0
 18  8  1  0  0  0
 19 26  1  0  0  0
 19 20  1  0  0  0
 20 21  2  0  0  0
 21 22  1  0  0  0
 22 23  2  0  0  0
 23 24  1  0  0  0
 24 25  2  0  0  0
 25 20  1  0  0  0
 26  5  1  0  0  0
  3 28  1  0  0  0
  3 29  1  0  0  0
  4 30  1  0  0  0
  4 31  1  0  0  0
  9 32  1  0  0  0
 17 33  1  0  0  0
 18 34  1  0  0  0
 21 35  1  0  0  0
 22 36  1  0  0  0
 23 37  1  0  0  0
 24 38  1  0  0  0
 25 39  1  0  0  0
M  CHG  1   1  -1
M  END
> <pIC50>
5.699

$$$$
D5_15
  DSViewer          3D                             0

 36 38  0  0  0  0  0  0  0  0999 V2000
    5.9987    1.1841    0.8973 O   0  5
    5.3149    0.0651    0.4654 C   0  0
    3.9096   -0.0962    0.9198 C   0  0
    3.3288   -1.3807    0.3434 C   0  0
    1.9309   -1.4852    0.8305 C   0  0
    0.8805   -0.9689    0.1677 N   0  0
   -0.2117   -1.2606    0.9117 C   0  0
   -1.5635   -0.8925    0.5715 C   0  0
   -1.8803    0.4453    0.4630 C   0  0
   -3.1522    0.8771    0.1403 C   0  0
   -4.1573   -0.0287   -0.0860 C   0  0
   -5.7923    0.4839   -0.4995 Cl  0  0
   -3.8667   -1.3765    0.0164 C   0  0
   -2.5878   -1.7879    0.3404 C   0  0
    0.1812   -1.9491    2.0166 C   0  0
   -0.6601   -2.4566    3.0791 C   0  0
   -1.3985   -1.6266    3.8716 C   0  0
   -2.2040   -2.1424    4.8928 C   0  0
   -2.2619   -3.4990    5.1120 C   0  0
   -1.5231   -4.3467    4.3210 C   0  0
   -0.7323   -3.8207    3.3162 C   0  0
    1.4855   -2.0641    1.9294 O   0  0
    5.8395   -0.7820   -0.2735 O   0  0
    3.8212   -0.1724    2.0159 H   0  0
    3.3439    0.7706    0.5309 H   0  0
    3.9504   -2.2298    0.7029 H   0  0
    3.3276   -1.3030   -0.7456 H   0  0
   -1.0916    1.1843    0.6403 H   0  0
   -3.3960    1.9415    0.0557 H   0  0
   -4.6815   -2.0754   -0.1680 H   0  0
   -2.3859   -2.8444    0.4141 H   0  0
   -1.3646   -0.5784    3.7138 H   0  0
   -2.7798   -1.4760    5.5089 H   0  0
   -2.8784   -3.9072    5.8948 H   0  0
   -1.5625   -5.4310    4.4879 H   0  0
   -0.1396   -4.4761    2.6789 H   0  0
  1  2  1  0  0  0
  2 23  2  0  0  0
  2  3  1  0  0  0
  3  4  1  0  0  0
  4  5  1  0  0  0
  5  6  2  0  0  0
  6  7  1  0  0  0
  7 15  2  0  0  0
  7  8  1  0  0  0
  8  9  2  0  0  0
  9 10  1  0  0  0
 10 11  2  0  0  0
 11 13  1  0  0  0
 11 12  1  0  0  0
 13 14  2  0  0  0
 14  8  1  0  0  0
 15 22  1  0  0  0
 15 16  1  0  0  0
 16 17  2  0  0  0
 17 18  1  0  0  0
 18 19  2  0  0  0
 19 20  1  0  0  0
 20 21  2  0  0  0
 21 16  1  0  0  0
 22  5  1  0  0  0
  3 24  1  0  0  0
  3 25  1  0  0  0
  4 26  1  0  0  0
  4 27  1  0  0  0
  9 28  1  0  0  0
 10 29  1  0  0  0
 13 30  1  0  0  0
 14 31  1  0  0  0
 17 32  1  0  0  0
 18 33  1  0  0  0
 19 34  1  0  0  0
 20 35  1  0  0  0
 21 36  1  0  0  0
M  CHG  1   1  -1
M  END
> <pIC50>
5.523

$$$$
D5_16
  DSViewer          3D                             0

 29 30  0  0  0  0  0  0  0  0999 V2000
    7.4522    1.2553    0.5262 O   0  5
    6.1169    1.0226    0.8542 C   0  0
    5.4044   -0.1246    0.2586 C   0  0
    3.9769   -0.1583    0.7713 C   0  0
    3.3097   -1.3525    0.1233 C   0  0
    1.8844   -1.4846    0.5610 C   0  0
    0.7914   -0.9437   -0.0125 N   0  0
   -0.3203   -1.2851    0.6664 C   0  0
   -1.7041   -0.9154    0.3864 C   0  0
   -2.0911    0.3649    0.0610 C   0  0
   -3.3856    0.7459   -0.2084 C   0  0
   -4.3910   -0.2143   -0.1538 C   0  0
   -4.0442   -1.5213    0.1713 C   0  0
   -2.7251   -1.8678    0.4371 C   0  0
    0.1534   -2.0830    1.7128 C   0  0
   -1.0117   -2.8590    3.0163 Br  0  0
    1.4384   -2.1608    1.5969 O   0  0
    5.5110    1.7777    1.6513 O   0  0
    5.9526   -1.0647    0.5565 H   0  0
    5.4404   -0.1147   -0.8478 H   0  0
    3.5033    0.7856    0.4305 H   0  0
    3.9250   -0.1798    1.8629 H   0  0
    3.3796   -1.2025   -0.9762 H   0  0
    3.8405   -2.2759    0.3560 H   0  0
   -1.3245    1.1193    0.0147 H   0  0
   -3.6785    1.7550   -0.4632 H   0  0
   -5.3909    0.0852   -0.3630 H   0  0
   -4.8285   -2.2586    0.2114 H   0  0
   -2.4415   -2.8656    0.6881 H   0  0
  1  2  1  0  0  0
  2 18  2  0  0  0
  2  3  1  0  0  0
  3  4  1  0  0  0
  4  5  1  0  0  0
  5  6  1  0  0  0
  6  7  2  0  0  0
  7  8  1  0  0  0
  8 15  2  0  0  0
  8  9  1  0  0  0
  9 10  2  0  0  0
 10 11  1  0  0  0
 11 12  2  0  0  0
 12 13  1  0  0  0
 13 14  2  0  0  0
 14  9  1  0  0  0
 15 17  1  0  0  0
 15 16  1  0  0  0
 17  6  1  0  0  0
  3 19  1  0  0  0
  3 20  1  0  0  0
  4 21  1  0  0  0
  4 22  1  0  0  0
  5 23  1  0  0  0
  5 24  1  0  0  0
 10 25  1  0  0  0
 11 26  1  0  0  0
 12 27  1  0  0  0
 13 28  1  0  0  0
 14 29  1  0  0  0
M  CHG  1   1  -1
M  END
> <pIC50>
5.523

$$$$
D5_17
  DSViewer          3D                             0

 38 40  0  0  0  0  0  0  0  0999 V2000
    7.3965    1.3314    0.5093 O   0  5
    6.0615    1.0860    0.8502 C   0  0
    5.3794   -0.1268    0.3286 C   0  0
    3.9588   -0.1923    0.8185 C   0  0
    3.2555   -1.4294    0.2898 C   0  0
    1.8614   -1.5119    0.7586 C   0  0
    1.4562   -2.1124    1.8745 N   0  0
    0.1000   -1.9585    1.9325 C   0  0
   -0.7698   -2.4472    2.9646 C   0  0
   -0.8860   -3.7823    3.2581 C   0  0
   -1.7266   -4.2446    4.2528 C   0  0
   -2.4800   -3.3609    4.9852 C   0  0
   -2.3814   -2.0179    4.7103 C   0  0
   -1.5332   -1.5902    3.7114 C   0  0
   -0.2769   -1.2520    0.8206 C   0  0
   -1.6375   -0.8702    0.4929 C   0  0
   -1.9993    0.4553    0.3658 C   0  0
   -3.2676    0.8244    0.0607 N   0  0
   -4.2390   -0.0843   -0.1337 C   0  0
   -3.9163   -1.4219   -0.0153 C   0  0
   -2.6337   -1.7977    0.2933 C   0  0
    0.8240   -1.0093    0.1487 O   0  0
    5.4807    1.9261    1.6045 O   0  0
    5.3264   -0.0261   -0.7934 H   0  0
    5.9847   -0.9975    0.6139 H   0  0
    3.4269    0.6968    0.4278 H   0  0
    3.9804   -0.2010    1.9190 H   0  0
    3.2862   -1.3445   -0.8280 H   0  0
    3.8699   -2.2983    0.5469 H   0  0
   -0.2906   -4.4740    2.6787 H   0  0
   -1.7750   -5.3243    4.4394 H   0  0
   -3.1367   -3.7458    5.7650 H   0  0
   -2.9687   -1.3130    5.2791 H   0  0
   -1.4761   -0.5320    3.5178 H   0  0
   -1.2584    1.2248    0.5114 H   0  0
   -5.2482    0.2612   -0.3781 H   0  0
   -4.7210   -2.1237   -0.1781 H   0  0
   -2.3724   -2.8373    0.3878 H   0  0
  1  2  1  0  0  0
  2 23  2  0  0  0
  2  3  1  0  0  0
  3  4  1  0  0  0
  4  5  1  0  0  0
  5  6  1  0  0  0
  6  7  2  0  0  0
  7  8  1  0  0  0
  8 15  2  0  0  0
  8  9  1  0  0  0
  9 10  2  0  0  0
 10 11  1  0  0  0
 11 12  2  0  0  0
 12 13  1  0  0  0
 13 14  2  0  0  0
 14  9  1  0  0  0
 15 22  1  0  0  0
 15 16  1  0  0  0
 16 17  2  0  0  0
 17 18  1  0  0  0
 18 19  2  0  0  0
 19 20  1  0  0  0
 20 21  2  0  0  0
 21 16  1  0  0  0
 22  6  1  0  0  0
  3 24  1  0  0  0
  3 25  1  0  0  0
  4 26  1  0  0  0
  4 27  1  0  0  0
  5 28  1  0  0  0
  5 29  1  0  0  0
 10 30  1  0  0  0
 11 31  1  0  0  0
 12 32  1  0  0  0
 13 33  1  0  0  0
 14 34  1  0  0  0
 17 35  1  0  0  0
 19 36  1  0  0  0
 20 37  1  0  0  0
 21 38  1  0  0  0
M  CHG  1   1  -1
M  END
> <pIC50>
5.398

$$$$
D5_18
  DSViewer          3D                             0

 36 38  0  0  0  0  0  0  0  0999 V2000
   -6.5478    0.3872    0.4212 O   0  5
   -5.3421    0.8567   -0.0790 C   0  0
   -4.0989    0.1517    0.3164 C   0  0
   -2.9073    0.8292   -0.3334 C   0  0
   -1.6583    0.1251    0.0607 C   0  0
   -0.4120    0.4572   -0.3325 N   0  0
    0.4842   -0.3860    0.2072 C   0  0
    1.9345   -0.4483    0.0882 C   0  0
    2.5774   -1.1544   -0.9084 C   0  0
    3.9581   -1.1952   -0.9942 C   0  0
    4.7243   -0.5153   -0.0635 C   0  0
    4.1069    0.1967    0.9406 C   0  0
    2.7248    0.2194    1.0012 C   0  0
   -0.2595   -1.2680    0.9618 C   0  0
    0.2381   -2.3841    1.7543 C   0  0
    0.0296   -2.4017    3.1149 C   0  0
    0.4903   -3.4446    3.8846 C   0  0
    1.1700   -4.4775    3.2542 C   0  0
    1.3877   -4.4784    1.9008 C   0  0
    0.9154   -3.4214    1.1556 C   0  0
   -1.5406   -0.9200    0.8421 O   0  0
   -5.2785    1.8489   -0.8465 O   0  0
   -4.0188    0.1403    1.4078 H   0  0
   -4.2039   -0.9016   -0.0280 H   0  0
   -3.0149    0.9309   -1.4124 H   0  0
   -2.9037    1.8801    0.0791 H   0  0
    1.9865   -1.6990   -1.6539 H   0  0
    4.4935   -1.7340   -1.7562 H   0  0
    5.8101   -0.5335   -0.1122 H   0  0
    4.6858    0.7422    1.6876 H   0  0
    2.2833    0.7906    1.8065 H   0  0
   -0.5025   -1.5858    3.5827 H   0  0
    0.3590   -3.5167    4.9540 H   0  0
    1.5416   -5.3154    3.8602 H   0  0
    1.9225   -5.2822    1.3813 H   0  0
    1.0995   -3.4407    0.0702 H   0  0
  1  2  1  0  0  0
  2 22  2  0  0  0
  2  3  1  0  0  0
  3  4  1  0  0  0
  4  5  1  0  0  0
  5  6  2  0  0  0
  6  7  1  0  0  0
  7 14  2  0  0  0
  7  8  1  0  0  0
  8  9  2  0  0  0
  9 10  1  0  0  0
 10 11  2  0  0  0
 11 12  1  0  0  0
 12 13  2  0  0  0
 13  8  1  0  0  0
 14 21  1  0  0  0
 14 15  1  0  0  0
 15 16  2  0  0  0
 16 17  1  0  0  0
 17 18  2  0  0  0
 18 19  1  0  0  0
 19 20  2  0  0  0
 20 15  1  0  0  0
 21  5  1  0  0  0
  3 23  1  0  0  0
  3 24  1  0  0  0
  4 25  1  0  0  0
  4 26  1  0  0  0
  9 27  1  0  0  0
 10 28  1  0  0  0
 11 29  1  0  0  0
 12 30  1  0  0  0
 13 31  1  0  0  0
 16 32  1  0  0  0
 17 33  1  0  0  0
 18 34  1  0  0  0
 19 35  1  0  0  0
 20 36  1  0  0  0
M  CHG  1   1  -1
M  END
> <pIC50>
5.301

$$$$
D5_19
  DSViewer          3D                             0

 36 38  0  0  0  0  0  0  0  0999 V2000
    6.0937    1.0615    0.7850 O   0  5
    5.2877   -0.0040    0.3774 C   0  0
    3.8760   -0.1209    0.8194 C   0  0
    3.2691   -1.3636    0.2230 C   0  0
    1.8496   -1.4959    0.6633 C   0  0
    0.7692   -0.9959    0.0446 N   0  0
   -0.3397   -1.3200    0.7396 C   0  0
   -1.7037   -0.9669    0.4211 C   0  0
   -2.0777    0.3621    0.4000 C   0  0
   -3.3737    0.7267    0.1003 C   0  0
   -3.7091    2.0586    0.0880 F   0  0
   -4.3499   -0.1969   -0.1891 C   0  0
   -3.9826   -1.5339   -0.1700 C   0  0
   -2.6662   -1.9004    0.1343 C   0  0
    0.0950   -2.0489    1.8255 C   0  0
   -0.6705   -2.6459    2.8945 C   0  0
   -1.3614   -3.7965    2.6767 C   0  0
   -2.0999   -4.3677    3.6872 C   0  0
   -2.1586   -3.7878    4.9491 C   0  0
   -1.4659   -2.6323    5.1714 C   0  0
   -0.7231   -2.0673    4.1363 C   0  0
    1.4217   -2.1236    1.7290 O   0  0
    5.8380   -0.8460   -0.3817 O   0  0
    3.8507   -0.1287    1.9223 H   0  0
    3.3255    0.8006    0.5022 H   0  0
    3.8671   -2.2235    0.6466 H   0  0
    3.3715   -1.4261   -0.8571 H   0  0
   -1.3521    1.1614    0.6199 H   0  0
   -5.3746    0.0462   -0.4281 H   0  0
   -4.7291   -2.2819   -0.3936 H   0  0
   -2.4672   -2.9391    0.1239 H   0  0
   -1.3369   -4.2756    1.7204 H   0  0
   -2.6517   -5.2854    3.5142 H   0  0
   -2.7360   -4.2352    5.7393 H   0  0
   -1.5175   -2.1890    6.1564 H   0  0
   -0.1894   -1.1500    4.3590 H   0  0
  1  2  1  0  0  0
  2 23  2  0  0  0
  2  3  1  0  0  0
  3  4  1  0  0  0
  4  5  1  0  0  0
  5  6  2  0  0  0
  6  7  1  0  0  0
  7 15  2  0  0  0
  7  8  1  0  0  0
  8  9  2  0  0  0
  9 10  1  0  0  0
 10 12  2  0  0  0
 10 11  1  0  0  0
 12 13  1  0  0  0
 13 14  2  0  0  0
 14  8  1  0  0  0
 15 22  1  0  0  0
 15 16  1  0  0  0
 16 17  2  0  0  0
 17 18  1  0  0  0
 18 19  2  0  0  0
 19 20  1  0  0  0
 20 21  2  0  0  0
 21 16  1  0  0  0
 22  5  1  0  0  0
  3 24  1  0  0  0
  3 25  1  0  0  0
  4 26  1  0  0  0
  4 27  1  0  0  0
  9 28  1  0  0  0
 12 29  1  0  0  0
 13 30  1  0  0  0
 14 31  1  0  0  0
 17 32  1  0  0  0
 18 33  1  0  0  0
 19 34  1  0  0  0
 20 35  1  0  0  0
 21 36  1  0  0  0
M  CHG  1   1  -1
M  END
> <pIC50>
5.155

$$$$
D5_20
  DSViewer          3D                             0

 36 38  0  0  0  0  0  0  0  0999 V2000
    6.1290    0.9803    0.8255 O   0  5
    5.3511   -0.0807    0.4215 C   0  0
    3.9081   -0.0985    0.8121 C   0  0
    3.2989   -1.3555    0.2472 C   0  0
    1.8415   -1.4032    0.6233 C   0  0
    0.7998   -0.9180   -0.0460 N   0  0
   -0.3197   -1.1802    0.6499 C   0  0
   -1.7067   -0.8744    0.3741 C   0  0
   -2.1293    0.4379    0.2451 C   0  0
   -3.4513    0.7304   -0.0173 C   0  0
   -4.3982   -0.2624   -0.1608 C   0  0
   -5.7038    0.0326   -0.4204 F   0  0
   -3.9723   -1.5708   -0.0314 C   0  0
   -2.6438   -1.8756    0.2328 C   0  0
    0.0816   -1.8574    1.7932 C   0  0
   -0.7525   -2.3636    2.8725 C   0  0
   -0.8448   -3.6909    3.2262 C   0  0
   -1.6656   -4.1100    4.2721 C   0  0
   -2.4001   -3.1851    4.9686 C   0  0
   -2.3184   -1.8633    4.6286 C   0  0
   -1.5074   -1.4760    3.5999 C   0  0
    1.3919   -1.9554    1.7099 O   0  0
    5.8806   -0.9913   -0.2578 O   0  0
    3.8055   -0.1451    1.9167 H   0  0
    3.3614    0.7605    0.3627 H   0  0
    3.8190   -2.2241    0.7216 H   0  0
    3.4309   -1.4605   -0.8387 H   0  0
   -1.4359    1.2630    0.3467 H   0  0
   -3.8056    1.7456   -0.1223 H   0  0
   -4.7104   -2.3577   -0.1425 H   0  0
   -2.3577   -2.9186    0.3259 H   0  0
   -0.2782   -4.4145    2.6910 H   0  0
   -1.7339   -5.1512    4.5449 H   0  0
   -3.0361   -3.5197    5.7807 H   0  0
   -2.9172   -1.1587    5.2054 H   0  0
   -1.4569   -0.4155    3.3451 H   0  0
  1  2  1  0  0  0
  2 23  2  0  0  0
  2  3  1  0  0  0
  3  4  1  0  0  0
  4  5  1  0  0  0
  5  6  2  0  0  0
  6  7  1  0  0  0
  7 15  2  0  0  0
  7  8  1  0  0  0
  8  9  2  0  0  0
  9 10  1  0  0  0
 10 11  2  0  0  0
 11 13  1  0  0  0
 11 12  1  0  0  0
 13 14  2  0  0  0
 14  8  1  0  0  0
 15 22  1  0  0  0
 15 16  1  0  0  0
 16 17  2  0  0  0
 17 18  1  0  0  0
 18 19  2  0  0  0
 19 20  1  0  0  0
 20 21  2  0  0  0
 21 16  1  0  0  0
 22  5  1  0  0  0
  3 24  1  0  0  0
  3 25  1  0  0  0
  4 26  1  0  0  0
  4 27  1  0  0  0
  9 28  1  0  0  0
 10 29  1  0  0  0
 13 30  1  0  0  0
 14 31  1  0  0  0
 17 32  1  0  0  0
 18 33  1  0  0  0
 19 34  1  0  0  0
 20 35  1  0  0  0
 21 36  1  0  0  0
M  CHG  1   1  -1
M  END
> <pIC50>
5.046

$$$$
D5_21
  DSViewer          3D                             0

 36 38  0  0  0  0  0  0  0  0999 V2000
    6.0272    1.0625    0.7988 O   0  5
    5.2650   -0.0224    0.3789 C   0  0
    3.8561   -0.1427    0.7803 C   0  0
    3.2924   -1.4100    0.1792 C   0  0
    1.8526   -1.4960    0.6123 C   0  0
    0.7719   -1.0216    0.0172 N   0  0
   -0.3189   -1.3298    0.7602 C   0  0
   -1.6849   -0.9752    0.4266 C   0  0
   -2.0106    0.3563    0.3227 C   0  0
   -3.2763    0.7994    0.0113 C   0  0
   -3.6961    2.4925   -0.1220 Cl  0  0
   -4.2551   -0.1606   -0.2042 C   0  0
   -3.9744   -1.5173   -0.1107 C   0  0
   -5.2842   -2.6357   -0.4020 Cl  0  0
   -2.6860   -1.8964    0.2050 C   0  0
    0.1532   -2.0189    1.8426 C   0  0
   -0.6388   -2.5735    2.9466 C   0  0
   -0.6464   -3.9351    3.1983 C   0  0
   -1.3655   -4.4976    4.2107 C   0  0
   -2.1180   -3.6673    5.0180 C   0  0
   -2.1123   -2.3093    4.7694 C   0  0
   -1.3815   -1.7505    3.7427 C   0  0
    1.4533   -2.0926    1.7099 O   0  0
    5.8281   -0.8995   -0.3596 O   0  0
    3.2596    0.6988    0.3730 H   0  0
    3.7107   -0.1999    1.8791 H   0  0
    3.8585   -2.2889    0.5486 H   0  0
    3.3533   -1.4107   -0.9237 H   0  0
   -1.2438    1.0939    0.4919 H   0  0
   -5.2519    0.1713   -0.4492 H   0  0
   -2.4721   -2.9503    0.2767 H   0  0
   -0.0485   -4.5933    2.5567 H   0  0
   -1.3276   -5.5712    4.3534 H   0  0
   -2.6813   -4.1301    5.8149 H   0  0
   -2.7028   -1.6538    5.4024 H   0  0
   -1.3877   -0.6707    3.5587 H   0  0
  1  2  1  0  0  0
  2 24  2  0  0  0
  2  3  1  0  0  0
  3  4  1  0  0  0
  4  5  1  0  0  0
  5  6  2  0  0  0
  6  7  1  0  0  0
  7 16  2  0  0  0
  7  8  1  0  0  0
  8  9  2  0  0  0
  9 10  1  0  0  0
 10 12  2  0  0  0
 10 11  1  0  0  0
 12 13  1  0  0  0
 13 15  2  0  0  0
 13 14  1  0  0  0
 15  8  1  0  0  0
 16 23  1  0  0  0
 16 17  1  0  0  0
 17 18  2  0  0  0
 18 19  1  0  0  0
 19 20  2  0  0  0
 20 21  1  0  0  0
 21 22  2  0  0  0
 22 17  1  0  0  0
 23  5  1  0  0  0
  3 25  1  0  0  0
  3 26  1  0  0  0
  4 27  1  0  0  0
  4 28  1  0  0  0
  9 29  1  0  0  0
 12 30  1  0  0  0
 15 31  1  0  0  0
 18 32  1  0  0  0
 19 33  1  0  0  0
 20 34  1  0  0  0
 21 35  1  0  0  0
 22 36  1  0  0  0
M  CHG  1   1  -1
M  END
> <pIC50>
5.046

$$$$
D5_22
  DSViewer          3D                             0

 37 39  0  0  0  0  0  0  0  0999 V2000
    6.0952    1.0470    0.8147 O   0  5
    5.3491   -0.0357    0.3920 C   0  0
    3.9267   -0.1165    0.7910 C   0  0
    3.3025   -1.3702    0.2251 C   0  0
    1.8654   -1.4560    0.6262 C   0  0
    0.7780   -0.9856    0.0014 N   0  0
   -0.3349   -1.2760    0.7004 C   0  0
   -1.7212   -0.9581    0.3929 C   0  0
   -2.0887    0.3640    0.2905 C   0  0
   -3.3844    0.7543    0.0016 C   0  0
   -3.7584    2.1363   -0.1032 C   0  0
   -4.0695    3.2612   -0.1692 N   0  0
   -4.3419   -0.2302   -0.1902 C   0  0
   -3.9804   -1.5611   -0.0890 C   0  0
   -2.6903   -1.9143    0.1980 C   0  0
    0.1354   -1.9684    1.8184 C   0  0
   -0.7506   -2.4806    2.8620 C   0  0
   -0.7989   -3.8379    3.1097 C   0  0
   -1.6291   -4.3510    4.0923 C   0  0
   -2.4284   -3.5312    4.8496 C   0  0
   -2.3950   -2.1702    4.6177 C   0  0
   -1.5523   -1.6661    3.6227 C   0  0
    1.4415   -2.0507    1.7318 O   0  0
    5.8167   -0.9587   -0.3160 O   0  0
    3.8572   -0.1544    1.9120 H   0  0
    3.4099    0.7795    0.3927 H   0  0
    3.8296   -2.2830    0.5696 H   0  0
    3.3793   -1.3780   -0.8834 H   0  0
   -1.3660    1.1775    0.4341 H   0  0
   -5.3629    0.0843   -0.4179 H   0  0
   -4.7465   -2.3273   -0.2429 H   0  0
   -2.3636   -2.9560    0.2868 H   0  0
   -0.1839   -4.5122    2.5332 H   0  0
   -1.6546   -5.4183    4.2734 H   0  0
   -3.0890   -3.9093    5.6271 H   0  0
   -3.0260   -1.5356    5.2173 H   0  0
   -1.5216   -0.6157    3.4383 H   0  0
  1  2  1  0  0  0
  2 24  2  0  0  0
  2  3  1  0  0  0
  3  4  1  0  0  0
  4  5  1  0  0  0
  5  6  2  0  0  0
  6  7  1  0  0  0
  7 16  2  0  0  0
  7  8  1  0  0  0
  8  9  2  0  0  0
  9 10  1  0  0  0
 10 13  2  0  0  0
 10 11  1  0  0  0
 11 12  3  0  0  0
 13 14  1  0  0  0
 14 15  2  0  0  0
 15  8  1  0  0  0
 16 23  1  0  0  0
 16 17  1  0  0  0
 17 18  2  0  0  0
 18 19  1  0  0  0
 19 20  2  0  0  0
 20 21  1  0  0  0
 21 22  2  0  0  0
 22 17  1  0  0  0
 23  5  1  0  0  0
  3 25  1  0  0  0
  3 26  1  0  0  0
  4 27  1  0  0  0
  4 28  1  0  0  0
  9 29  1  0  0  0
 13 30  1  0  0  0
 14 31  1  0  0  0
 15 32  1  0  0  0
 18 33  1  0  0  0
 19 34  1  0  0  0
 20 35  1  0  0  0
 21 36  1  0  0  0
 22 37  1  0  0  0
M  CHG  1   1  -1
M  END
> <pIC50>
5

$$$$
D5_23
  DSViewer          3D                             0

 40 43  0  0  0  0  0  0  0  0999 V2000
    6.2628    1.1848    2.1536 Cl  0  0
    5.3668    0.2917    0.9677 C   0  0
    6.0093   -0.0761   -0.2038 C   0  0
    7.6686    0.3535   -0.4629 Cl  0  0
    5.3395   -0.7742   -1.1503 C   0  0
    4.0265   -1.1172   -0.9508 C   0  0
    3.3358   -0.7766    0.1987 C   0  0
    1.9517   -1.1217    0.4452 C   0  0
    1.5167   -2.2429    1.1132 C   0  0
    2.3110   -3.3084    1.7118 C   0  0
    3.1515   -4.1122    0.9419 C   0  0
    3.9095   -5.1214    1.4737 C   0  0
    3.8698   -5.3844    2.8092 C   0  0
    3.0482   -4.6116    3.6178 C   0  0
    2.2979   -3.6046    3.0560 C   0  0
    0.2057   -2.1797    1.1156 O   0  0
   -0.2399   -1.1232    0.5117 C   0  0
   -1.6553   -0.7346    0.3270 C   0  0
   -2.6761   -1.5064    0.8130 C   0  0
   -3.9802   -1.1305    0.6289 C   0  0
   -4.3009    0.0232   -0.0436 C   0  0
   -5.6925    0.4111   -0.2338 C   0  0
   -6.0290    1.5708   -0.9114 O   0  5
   -6.6020   -0.3238    0.2275 O   0  0
   -3.2690    0.8133   -0.5407 C   0  0
   -1.9569    0.4251   -0.3496 C   0  0
    0.8444   -0.4508    0.0865 N   0  0
    4.0286   -0.0681    1.1507 C   0  0
    5.8349   -1.0607   -2.0594 H   0  0
    3.4924   -1.6725   -1.7034 H   0  0
    3.2044   -3.9304   -0.1092 H   0  0
    4.5675   -5.7486    0.8624 H   0  0
    4.4770   -6.1889    3.2193 H   0  0
    3.0269   -4.8346    4.6873 H   0  0
    1.6695   -3.0218    3.7077 H   0  0
   -2.4564   -2.4074    1.3394 H   0  0
   -4.7931   -1.7596    1.0244 H   0  0
   -3.5532    1.7191   -1.0681 H   0  0
   -1.1611    1.0441   -0.7384 H   0  0
    3.5784    0.2445    2.0818 H   0  0
  1  2  1  0  0  0
  2  3  2  0  0  0
  3  5  1  0  0  0
  3  4  1  0  0  0
  5  6  2  0  0  0
  6  7  1  0  0  0
  7 28  2  0  0  0
  7  8  1  0  0  0
  8  9  2  0  0  0
  9 16  1  0  0  0
  9 10  1  0  0  0
 10 11  2  0  0  0
 11 12  1  0  0  0
 12 13  2  0  0  0
 13 14  1  0  0  0
 14 15  2  0  0  0
 15 10  1  0  0  0
 16 17  1  0  0  0
 17 27  2  0  0  0
 17 18  1  0  0  0
 18 19  2  0  0  0
 19 20  1  0  0  0
 20 21  2  0  0  0
 21 25  1  0  0  0
 21 22  1  0  0  0
 22 24  2  0  0  0
 22 23  1  0  0  0
 25 26  2  0  0  0
 26 18  1  0  0  0
 27  8  1  0  0  0
 28  2  1  0  0  0
  5 29  1  0  0  0
  6 30  1  0  0  0
 11 31  1  0  0  0
 12 32  1  0  0  0
 13 33  1  0  0  0
 14 34  1  0  0  0
 15 35  1  0  0  0
 19 36  1  0  0  0
 20 37  1  0  0  0
 25 38  1  0  0  0
 26 39  1  0  0  0
 28 40  1  0  0  0
M  CHG  1  23  -1
M  END
> <pIC50>
4.921

$$$$
D5_24
  DSViewer          3D                             0

 40 43  0  0  0  0  0  0  0  0999 V2000
    5.7305    1.2881    1.6261 Cl  0  0
    5.0548    0.1130    0.4921 C   0  0
    5.8234   -0.4359   -0.5104 C   0  0
    7.5155    0.0439   -0.6649 Cl  0  0
    5.2495   -1.3429   -1.3632 C   0  0
    3.9225   -1.7173   -1.2400 C   0  0
    3.1376   -1.1776   -0.2417 C   0  0
    1.7518   -1.5294   -0.0663 C   0  0
    1.2434   -2.7940    0.2436 C   0  0
    2.0261   -3.9956    0.4476 C   0  0
    2.9248   -4.0530    1.4797 C   0  0
    3.6794   -5.2219    1.6702 C   0  0
    3.5216   -6.3127    0.8249 C   0  0
    2.6244   -6.2424   -0.1976 C   0  0
    1.8866   -5.0842   -0.3747 C   0  0
   -0.0483   -2.6687    0.3088 O   0  0
   -0.4311   -1.4143    0.0649 C   0  0
   -1.8021   -0.9679    0.0662 C   0  0
   -2.7669   -1.9561    0.3436 C   0  0
   -4.1082   -1.6542    0.3740 C   0  0
   -4.5115   -0.3629    0.1286 C   0  0
   -3.5932    0.6092   -0.1420 C   0  0
   -2.2043    0.3056   -0.1755 C   0  0
   -1.3098    1.3766   -0.4648 C   0  0
   -1.8435    2.6590   -0.7008 O   0  5
   -0.0889    1.3052   -0.5338 O   0  0
    0.6729   -0.7648   -0.1545 N   0  0
    3.7467   -0.2696    0.5970 C   0  0
    5.8917   -1.7506   -2.1387 H   0  0
    3.5291   -2.4348   -1.9409 H   0  0
    3.1153   -3.2590    2.1848 H   0  0
    4.3979   -5.3194    2.4641 H   0  0
    4.0971   -7.2315    0.9541 H   0  0
    2.5005   -7.0903   -0.8562 H   0  0
    1.1716   -5.0153   -1.1820 H   0  0
   -2.4553   -2.9832    0.5391 H   0  0
   -4.8707   -2.3779    0.5810 H   0  0
   -5.5738   -0.1015    0.1481 H   0  0
   -3.9129    1.6295   -0.3357 H   0  0
    3.1598    0.1811    1.4012 H   0  0
  1  2  1  0  0  0
  2  3  2  0  0  0
  3  5  1  0  0  0
  3  4  1  0  0  0
  5  6  2  0  0  0
  6  7  1  0  0  0
  7 28  2  0  0  0
  7  8  1  0  0  0
  8  9  2  0  0  0
  9 16  1  0  0  0
  9 10  1  0  0  0
 10 11  2  0  0  0
 11 12  1  0  0  0
 12 13  2  0  0  0
 13 14  1  0  0  0
 14 15  2  0  0  0
 15 10  1  0  0  0
 16 17  1  0  0  0
 17 27  2  0  0  0
 17 18  1  0  0  0
 18 19  2  0  0  0
 19 20  1  0  0  0
 20 21  2  0  0  0
 21 22  1  0  0  0
 22 23  2  0  0  0
 23 24  1  0  0  0
 23 18  1  0  0  0
 24 26  2  0  0  0
 24 25  1  0  0  0
 27  8  1  0  0  0
 28  2  1  0  0  0
  5 29  1  0  0  0
  6 30  1  0  0  0
 11 31  1  0  0  0
 12 32  1  0  0  0
 13 33  1  0  0  0
 14 34  1  0  0  0
 15 35  1  0  0  0
 19 36  1  0  0  0
 20 37  1  0  0  0
 21 38  1  0  0  0
 22 39  1  0  0  0
 28 40  1  0  0  0
M  CHG  1  25  -1
M  END
> <pIC50>
4.824

$$$$
D5_25
  DSViewer          3D                             0

 34 36  0  0  0  0  0  0  0  0999 V2000
    6.0116    0.9926    0.9056 O   0  5
    4.7664    0.4643    0.6591 C   0  0
    4.3434    0.2056   -0.7211 C   0  0
    3.5307   -1.4099   -0.9390 S   0  0
    1.9993   -1.5155   -0.0492 C   0  0
    0.8059   -1.1170   -0.4820 N   0  0
   -0.1508   -1.3787    0.4947 C   0  0
   -1.5405   -1.0315    0.3731 C   0  0
   -1.8647    0.2773   -0.0257 C   0  0
   -3.1406    0.7095   -0.2172 C   0  0
   -4.1974   -0.1290   -0.0236 C   0  0
   -3.9144   -1.4396    0.3736 C   0  0
   -2.6017   -1.8708    0.5647 C   0  0
    0.5410   -1.9439    1.5006 C   0  0
    0.1009   -2.4462    2.8057 C   0  0
    0.4428   -1.8175    3.9845 C   0  0
    0.0508   -2.3143    5.2169 C   0  0
   -0.7031   -3.4605    5.3143 C   0  0
   -1.0559   -4.1020    4.1562 C   0  0
   -0.6549   -3.5942    2.9438 C   0  0
    1.8381   -2.0142    1.1474 O   0  0
    3.9961    0.2058    1.6062 O   0  0
    5.1447    0.3069   -1.4839 H   0  0
    3.5727    0.9892   -1.0085 H   0  0
   -1.0577    0.9753   -0.1816 H   0  0
   -3.3174    1.7310   -0.5269 H   0  0
   -5.2257    0.2117   -0.1762 H   0  0
   -4.7614   -2.0910    0.5244 H   0  0
   -2.4906   -2.9066    0.8645 H   0  0
    1.0335   -0.9184    3.9270 H   0  0
    0.3536   -1.7691    6.0954 H   0  0
   -1.0226   -3.8739    6.2743 H   0  0
   -1.6456   -5.0057    4.2485 H   0  0
   -0.9422   -4.1237    2.0632 H   0  0
  1  2  1  0  0  0
  2 22  2  0  0  0
  2  3  1  0  0  0
  3  4  1  0  0  0
  4  5  1  0  0  0
  5  6  2  0  0  0
  6  7  1  0  0  0
  7 14  2  0  0  0
  7  8  1  0  0  0
  8  9  2  0  0  0
  9 10  1  0  0  0
 10 11  2  0  0  0
 11 12  1  0  0  0
 12 13  2  0  0  0
 13  8  1  0  0  0
 14 21  1  0  0  0
 14 15  1  0  0  0
 15 16  2  0  0  0
 16 17  1  0  0  0
 17 18  2  0  0  0
 18 19  1  0  0  0
 19 20  2  0  0  0
 20 15  1  0  0  0
 21  5  1  0  0  0
  3 23  1  0  0  0
  3 24  1  0  0  0
  9 25  1  0  0  0
 10 26  1  0  0  0
 11 27  1  0  0  0
 12 28  1  0  0  0
 13 29  1  0  0  0
 16 30  1  0  0  0
 17 31  1  0  0  0
 18 32  1  0  0  0
 19 33  1  0  0  0
 20 34  1  0  0  0
M  CHG  1   1  -1
M  END
> <pIC50>
4.77

$$$$
D5_26
  DSViewer          3D                             0

 36 38  0  0  0  0  0  0  0  0999 V2000
    5.6495   -0.3833    2.5064 O   0  5
    5.3083    0.3988    1.4154 C   0  0
    4.0113    0.1410    0.7457 C   0  0
    3.2604   -0.9935    1.4376 C   0  0
    1.9598   -1.2539    0.7693 C   0  0
    0.7736   -0.6875    1.0516 N   0  0
   -0.1863   -1.1727    0.2334 C   0  0
   -1.6052   -0.8351    0.1966 C   0  0
   -2.5822   -1.7383    0.5183 C   0  0
   -2.1772   -3.3724    1.0099 Cl  0  0
   -3.9040   -1.3225    0.4475 C   0  0
   -4.2537   -0.0454    0.0685 C   0  0
   -5.9128    0.4929   -0.0251 Cl  0  0
   -3.2644    0.8806   -0.2606 C   0  0
   -1.9766    0.4589   -0.1866 C   0  0
    0.4694   -2.0764   -0.5781 C   0  0
   -0.1014   -2.8812   -1.6381 C   0  0
   -0.0237   -4.2474   -1.5883 C   0  0
   -0.5644   -5.0450   -2.5925 C   0  0
   -1.1960   -4.4460   -3.6681 C   0  0
   -1.2835   -3.0672   -3.7342 C   0  0
   -0.7282   -2.2954   -2.7058 C   0  0
    1.7319   -2.0778   -0.2113 O   0  0
    6.0982    1.2841    1.0394 O   0  0
    3.3840    1.0553    0.7154 H   0  0
    4.2474   -0.1250   -0.3097 H   0  0
    3.0263   -0.6269    2.4705 H   0  0
    3.8683   -1.8944    1.4931 H   0  0
   -4.7027   -1.9998    0.6912 H   0  0
   -3.4817    1.8890   -0.5627 H   0  0
   -1.1716    1.1555   -0.4364 H   0  0
    0.4671   -4.7593   -0.7561 H   0  0
   -0.5123   -6.1094   -2.5685 H   0  0
   -1.6318   -5.0230   -4.4734 H   0  0
   -1.7744   -2.5844   -4.5686 H   0  0
   -0.8331   -1.2315   -2.8227 H   0  0
  1  2  1  0  0  0
  2 24  2  0  0  0
  2  3  1  0  0  0
  3  4  1  0  0  0
  4  5  1  0  0  0
  5  6  2  0  0  0
  6  7  1  0  0  0
  7 16  2  0  0  0
  7  8  1  0  0  0
  8  9  2  0  0  0
  9 11  1  0  0  0
  9 10  1  0  0  0
 11 12  2  0  0  0
 12 14  1  0  0  0
 12 13  1  0  0  0
 14 15  2  0  0  0
 15  8  1  0  0  0
 16 23  1  0  0  0
 16 17  1  0  0  0
 17 18  2  0  0  0
 18 19  1  0  0  0
 19 20  2  0  0  0
 20 21  1  0  0  0
 21 22  2  0  0  0
 22 17  1  0  0  0
 23  5  1  0  0  0
  3 25  1  0  0  0
  3 26  1  0  0  0
  4 27  1  0  0  0
  4 28  1  0  0  0
 11 29  1  0  0  0
 14 30  1  0  0  0
 15 31  1  0  0  0
 18 32  1  0  0  0
 19 33  1  0  0  0
 20 34  1  0  0  0
 21 35  1  0  0  0
 22 36  1  0  0  0
M  CHG  1   1  -1
M  END
> <pIC50>
4.77

$$$$
D5_27
  DSViewer          3D                             0

 40 42  0  0  0  0  0  0  0  0999 V2000
    6.0915    1.0280    0.8158 O   0  5
    5.3338   -0.0437    0.3982 C   0  0
    3.9292   -0.1534    0.7993 C   0  0
    3.2710   -1.4073    0.2348 C   0  0
    1.8457   -1.4885    0.6594 C   0  0
    0.7943   -0.9694   -0.0147 N   0  0
   -0.3206   -1.2481    0.6842 C   0  0
   -1.7025   -0.9137    0.3936 C   0  0
   -2.6748   -1.8546    0.1728 C   0  0
   -3.9670   -1.4572   -0.0972 C   0  0
   -4.3482   -0.1331   -0.1599 C   0  0
   -5.6183    0.3060   -0.4246 O   0  0
   -6.7276   -0.5203   -0.6726 C   0  0
   -3.3620    0.8064    0.0638 C   0  0
   -2.0456    0.4146    0.3392 C   0  0
    0.0672   -1.9493    1.8021 C   0  0
   -0.7559   -2.4840    2.8788 C   0  0
   -0.7911   -3.8422    3.1510 C   0  0
   -1.5728   -4.3396    4.1700 C   0  0
   -2.3453   -3.5160    4.9545 C   0  0
   -2.3141   -2.1611    4.6877 C   0  0
   -1.5305   -1.6664    3.6667 C   0  0
    1.3692   -2.0643    1.7368 O   0  0
    5.8615   -0.9130   -0.3225 O   0  0
    3.3586    0.7312    0.4507 H   0  0
    3.8045   -0.2018    1.9130 H   0  0
    3.3251   -1.4257   -0.8678 H   0  0
    3.7671   -2.3114    0.6731 H   0  0
   -2.4231   -2.8836    0.2120 H   0  0
   -4.7559   -2.2022   -0.2761 H   0  0
   -7.4331    0.0357   -1.3260 H   0  0
   -6.4700   -1.4554   -1.2082 H   0  0
   -7.2418   -0.6988    0.2832 H   0  0
   -3.6296    1.8617    0.0216 H   0  0
   -1.3231    1.2221    0.5049 H   0  0
   -0.1785   -4.5177    2.5333 H   0  0
   -1.5535   -5.4186    4.3296 H   0  0
   -2.9523   -3.9250    5.7493 H   0  0
   -2.9090   -1.4622    5.2807 H   0  0
   -1.4907   -0.5935    3.4371 H   0  0
  1  2  1  0  0  0
  2 24  2  0  0  0
  2  3  1  0  0  0
  3  4  1  0  0  0
  4  5  1  0  0  0
  5  6  2  0  0  0
  6  7  1  0  0  0
  7 16  2  0  0  0
  7  8  1  0  0  0
  8  9  2  0  0  0
  9 10  1  0  0  0
 10 11  2  0  0  0
 11 14  1  0  0  0
 11 12  1  0  0  0
 12 13  1  0  0  0
 14 15  2  0  0  0
 15  8  1  0  0  0
 16 23  1  0  0  0
 16 17  1  0  0  0
 17 18  2  0  0  0
 18 19  1  0  0  0
 19 20  2  0  0  0
 20 21  1  0  0  0
 21 22  2  0  0  0
 22 17  1  0  0  0
 23  5  1  0  0  0
  3 25  1  0  0  0
  3 26  1  0  0  0
  4 27  1  0  0  0
  4 28  1  0  0  0
  9 29  1  0  0  0
 10 30  1  0  0  0
 13 31  1  0  0  0
 13 32  1  0  0  0
 13 33  1  0  0  0
 14 34  1  0  0  0
 15 35  1  0  0  0
 18 36  1  0  0  0
 19 37  1  0  0  0
 20 38  1  0  0  0
 21 39  1  0  0  0
 22 40  1  0  0  0
M  CHG  1   1  -1
M  END
> <pIC50>
4.745

$$$$
D5_28
  DSViewer          3D                             0

 38 40  0  0  0  0  0  0  0  0999 V2000
    7.4148    1.2274    0.4463 O   0  5
    6.0821    1.0685    0.8300 C   0  0
    5.3911   -0.1385    0.2960 C   0  0
    3.9423   -0.1750    0.7998 C   0  0
    3.3007   -1.4198    0.2233 C   0  0
    1.8833   -1.5165    0.6757 C   0  0
    0.7922   -1.0018    0.0509 N   0  0
   -0.3184   -1.2879    0.7527 C   0  0
   -1.6906   -0.9114    0.4145 C   0  0
   -2.0904    0.4126    0.3034 C   0  0
   -3.3830    0.7768   -0.0152 C   0  0
   -4.3380   -0.2128   -0.2375 C   0  0
   -3.9549   -1.5200   -0.1305 C   0  0
   -2.6594   -1.8673    0.1886 C   0  0
    0.1282   -2.0059    1.8466 C   0  0
   -0.7760   -2.5207    2.8836 C   0  0
   -0.8834   -3.8742    3.1321 C   0  0
   -1.7216   -4.3840    4.0967 C   0  0
   -2.4608   -3.5238    4.8202 N   0  0
   -2.3904   -2.1913    4.6141 C   0  0
   -1.5514   -1.6752    3.6481 C   0  0
    1.4129   -2.1072    1.7486 O   0  0
    5.5167    1.8859    1.5695 O   0  0
    5.9231   -1.0206    0.7081 H   0  0
    5.4267   -0.2114   -0.7915 H   0  0
    3.4404    0.7002    0.3459 H   0  0
    3.8989   -0.1477    1.8892 H   0  0
    3.3491   -1.4452   -0.8741 H   0  0
    3.8388   -2.3046    0.6061 H   0  0
   -1.3392    1.1646    0.4783 H   0  0
   -3.7069    1.8017   -0.1048 H   0  0
   -5.3595    0.0936   -0.4895 H   0  0
   -4.6967   -2.2847   -0.3031 H   0  0
   -2.4037   -2.9063    0.2616 H   0  0
   -0.2844   -4.5723    2.5457 H   0  0
   -1.8077   -5.4554    4.2944 H   0  0
   -3.0117   -1.5215    5.2274 H   0  0
   -1.4824   -0.6127    3.4697 H   0  0
  1  2  1  0  0  0
  2 23  2  0  0  0
  2  3  1  0  0  0
  3  4  1  0  0  0
  4  5  1  0  0  0
  5  6  1  0  0  0
  6  7  2  0  0  0
  7  8  1  0  0  0
  8 15  2  0  0  0
  8  9  1  0  0  0
  9 10  2  0  0  0
 10 11  1  0  0  0
 11 12  2  0  0  0
 12 13  1  0  0  0
 13 14  2  0  0  0
 14  9  1  0  0  0
 15 22  1  0  0  0
 15 16  1  0  0  0
 16 17  2  0  0  0
 17 18  1  0  0  0
 18 19  2  0  0  0
 19 20  1  0  0  0
 20 21  2  0  0  0
 21 16  1  0  0  0
 22  6  1  0  0  0
  3 24  1  0  0  0
  3 25  1  0  0  0
  4 26  1  0  0  0
  4 27  1  0  0  0
  5 28  1  0  0  0
  5 29  1  0  0  0
 10 30  1  0  0  0
 11 31  1  0  0  0
 12 32  1  0  0  0
 13 33  1  0  0  0
 14 34  1  0  0  0
 17 35  1  0  0  0
 18 36  1  0  0  0
 20 37  1  0  0  0
 21 38  1  0  0  0
M  CHG  1   1  -1
M  END
> <pIC50>
4.699

$$$$
D5_29
  DSViewer          3D                             0

 36 38  0  0  0  0  0  0  0  0999 V2000
    5.6443   -0.7145   -0.6626 O   0  5
    5.0672    0.1321    0.2714 C   0  0
    3.6837   -0.1482    0.7116 C   0  0
    3.1152   -1.3733    0.0281 C   0  0
    1.7174   -1.5394    0.5639 C   0  0
    1.3571   -2.2504    1.6474 N   0  0
    0.0268   -2.1702    1.8200 C   0  0
   -0.7958   -2.7742    2.8526 C   0  0
   -1.4371   -1.9624    3.7763 C   0  0
   -1.2972   -0.2194    3.7727 Cl  0  0
   -2.2425   -2.5087    4.7823 C   0  0
   -2.4197   -3.8714    4.8816 C   0  0
   -1.7770   -4.6905    3.9557 C   0  0
   -0.9899   -4.1324    2.9749 C   0  0
   -0.4370   -1.3831    0.8060 C   0  0
   -1.7774   -0.9510    0.4821 C   0  0
   -2.0833    0.3791    0.4300 C   0  0
   -3.3672    0.8331    0.1210 C   0  0
   -4.3483   -0.0989   -0.1375 C   0  0
   -4.0663   -1.4356   -0.0914 C   0  0
   -2.7689   -1.8629    0.2214 C   0  0
    0.6131   -1.0331    0.0851 O   0  0
    5.6439    1.1298    0.7736 O   0  0
    3.0641    0.7196    0.3969 H   0  0
    3.6496   -0.3294    1.7969 H   0  0
    3.1204   -1.2712   -1.0690 H   0  0
    3.6853   -2.2870    0.2949 H   0  0
   -2.7516   -1.8938    5.5123 H   0  0
   -3.0260   -4.3385    5.6337 H   0  0
   -1.8804   -5.7494    3.9876 H   0  0
   -0.5062   -4.7886    2.2749 H   0  0
   -1.3347    1.1531    0.6283 H   0  0
   -3.5571    1.8953    0.0930 H   0  0
   -5.3746    0.2110   -0.3855 H   0  0
   -4.8422   -2.1504   -0.2955 H   0  0
   -2.6060   -2.9324    0.2430 H   0  0
  1  2  1  0  0  0
  2 23  2  0  0  0
  2  3  1  0  0  0
  3  4  1  0  0  0
  4  5  1  0  0  0
  5  6  2  0  0  0
  6  7  1  0  0  0
  7 15  2  0  0  0
  7  8  1  0  0  0
  8  9  2  0  0  0
  9 11  1  0  0  0
  9 10  1  0  0  0
 11 12  2  0  0  0
 12 13  1  0  0  0
 13 14  2  0  0  0
 14  8  1  0  0  0
 15 22  1  0  0  0
 15 16  1  0  0  0
 16 17  2  0  0  0
 17 18  1  0  0  0
 18 19  2  0  0  0
 19 20  1  0  0  0
 20 21  2  0  0  0
 21 16  1  0  0  0
 22  5  1  0  0  0
  3 24  1  0  0  0
  3 25  1  0  0  0
  4 26  1  0  0  0
  4 27  1  0  0  0
 11 28  1  0  0  0
 12 29  1  0  0  0
 13 30  1  0  0  0
 14 31  1  0  0  0
 17 32  1  0  0  0
 18 33  1  0  0  0
 19 34  1  0  0  0
 20 35  1  0  0  0
 21 36  1  0  0  0
M  CHG  1   1  -1
M  END
> <pIC50>
4.481

$$$$
D5_30
  DSViewer          3D                             0

 39 41  0  0  0  0  0  0  0  0999 V2000
    5.8832    1.1570    0.8054 O   0  5
    5.2081    0.0339    0.3612 C   0  0
    3.8107   -0.2013    0.7562 C   0  0
    3.2694   -1.4859    0.1334 C   0  0
    1.8653   -1.6296    0.6034 C   0  0
    0.7978   -1.1184    0.0123 N   0  0
   -0.3323   -1.4420    0.7115 C   0  0
   -1.7015   -1.0577    0.4143 C   0  0
   -2.7559   -1.8993    0.2282 C   0  0
   -4.0270   -1.4042   -0.0568 C   0  0
   -4.2610   -0.0519   -0.1603 C   0  0
   -5.5873    0.5347   -0.4552 C   0  0
   -6.2820    0.6332    0.7338 F   0  0
   -6.3515   -0.2424   -1.2980 F   0  0
   -5.4196    1.7857   -1.0240 F   0  0
   -3.2044    0.8105    0.0249 C   0  0
   -1.9554    0.3109    0.3058 C   0  0
    0.1270   -2.1929    1.7763 C   0  0
   -0.6652   -2.7926    2.8341 C   0  0
   -1.2408   -2.0706    3.8490 C   0  0
   -1.9958   -2.6861    4.8454 C   0  0
   -2.1791   -4.0440    4.8265 C   0  0
   -1.6145   -4.7883    3.8216 C   0  0
   -0.8563   -4.1561    2.8259 C   0  0
    1.4578   -2.2646    1.6469 O   0  0
    5.8074   -0.7877   -0.3878 O   0  0
    3.6925   -0.2474    1.8416 H   0  0
    3.1535    0.6330    0.3979 H   0  0
    3.8773   -2.3109    0.5314 H   0  0
    3.2747   -1.4212   -0.9719 H   0  0
   -2.5791   -2.9541    0.3075 H   0  0
   -4.8740   -2.0617   -0.2064 H   0  0
   -3.3841    1.8710   -0.0563 H   0  0
   -1.1509    1.0064    0.4448 H   0  0
   -1.1400   -1.0041    3.9255 H   0  0
   -2.4551   -2.1230    5.6548 H   0  0
   -2.7538   -4.5620    5.5760 H   0  0
   -1.7505   -5.8524    3.7939 H   0  0
   -0.4358   -4.8058    2.0628 H   0  0
  1  2  1  0  0  0
  2 26  2  0  0  0
  2  3  1  0  0  0
  3  4  1  0  0  0
  4  5  1  0  0  0
  5  6  2  0  0  0
  6  7  1  0  0  0
  7 18  2  0  0  0
  7  8  1  0  0  0
  8  9  2  0  0  0
  9 10  1  0  0  0
 10 11  2  0  0  0
 11 16  1  0  0  0
 11 12  1  0  0  0
 12 15  1  0  0  0
 12 14  1  0  0  0
 12 13  1  0  0  0
 16 17  2  0  0  0
 17  8  1  0  0  0
 18 25  1  0  0  0
 18 19  1  0  0  0
 19 20  2  0  0  0
 20 21  1  0  0  0
 21 22  2  0  0  0
 22 23  1  0  0  0
 23 24  2  0  0  0
 24 19  1  0  0  0
 25  5  1  0  0  0
  3 27  1  0  0  0
  3 28  1  0  0  0
  4 29  1  0  0  0
  4 30  1  0  0  0
  9 31  1  0  0  0
 10 32  1  0  0  0
 16 33  1  0  0  0
 17 34  1  0  0  0
 20 35  1  0  0  0
 21 36  1  0  0  0
 22 37  1  0  0  0
 23 38  1  0  0  0
 24 39  1  0  0  0
M  CHG  1   1  -1
M  END
> <pIC50>
4.481

$$$$
D5_31
  DSViewer          3D                             0

 36 38  0  0  0  0  0  0  0  0999 V2000
    5.3567   -0.9483    1.2536 O   0  5
    4.1124   -0.6346    0.7358 C   0  0
    3.8137   -0.8560   -0.7042 C   0  0
    2.9666   -2.1072   -0.7914 C   0  0
    1.7004   -1.9250   -0.0184 C   0  0
    1.4963   -2.2154    1.2962 N   0  0
    0.2388   -1.9194    1.6347 C   0  0
   -0.4129   -2.0659    2.9203 C   0  0
   -0.9016   -0.9890    3.5997 C   0  0
   -0.7659    0.2490    3.0429 F   0  0
   -1.5127   -1.1744    4.8163 C   0  0
   -1.6655   -2.4140    5.4065 C   0  0
   -1.1771   -3.5141    4.7333 C   0  0
   -0.5664   -3.3257    3.5166 C   0  0
   -0.3461   -1.4337    0.4974 C   0  0
   -1.7011   -0.9735    0.3363 C   0  0
   -2.7498   -1.8262    0.5230 C   0  0
   -4.0751   -1.3992    0.3725 C   0  0
   -4.3031   -0.0837    0.0276 C   0  0
   -3.2417    0.7748   -0.1603 C   0  0
   -1.9455    0.3254   -0.0049 C   0  0
    0.5580   -1.4570   -0.4511 O   0  0
    3.1935   -0.1540    1.4564 O   0  0
    3.2785    0.0187   -1.1112 H   0  0
    4.7639   -1.0461   -1.2497 H   0  0
    3.4926   -2.9802   -0.3587 H   0  0
    2.7651   -2.3364   -1.8563 H   0  0
   -1.8869   -0.2713    5.3186 H   0  0
   -2.1525   -2.5311    6.3683 H   0  0
   -1.2510   -4.5201    5.1156 H   0  0
   -0.1764   -4.2016    2.9778 H   0  0
   -2.6400   -2.8704    0.7948 H   0  0
   -4.9061   -2.0776    0.5208 H   0  0
   -5.3184    0.3165   -0.1062 H   0  0
   -3.4532    1.8208   -0.4353 H   0  0
   -1.1485    1.0407   -0.1638 H   0  0
  1  2  1  0  0  0
  2 23  2  0  0  0
  2  3  1  0  0  0
  3  4  1  0  0  0
  4  5  1  0  0  0
  5  6  2  0  0  0
  6  7  1  0  0  0
  7 15  2  0  0  0
  7  8  1  0  0  0
  8  9  2  0  0  0
  9 11  1  0  0  0
  9 10  1  0  0  0
 11 12  2  0  0  0
 12 13  1  0  0  0
 13 14  2  0  0  0
 14  8  1  0  0  0
 15 22  1  0  0  0
 15 16  1  0  0  0
 16 17  2  0  0  0
 17 18  1  0  0  0
 18 19  2  0  0  0
 19 20  1  0  0  0
 20 21  2  0  0  0
 21 16  1  0  0  0
 22  5  1  0  0  0
  3 24  1  0  0  0
  3 25  1  0  0  0
  4 26  1  0  0  0
  4 27  1  0  0  0
 11 28  1  0  0  0
 12 29  1  0  0  0
 13 30  1  0  0  0
 14 31  1  0  0  0
 17 32  1  0  0  0
 18 33  1  0  0  0
 19 34  1  0  0  0
 20 35  1  0  0  0
 21 36  1  0  0  0
M  CHG  1   1  -1
M  END
> <pIC50>
4.398

$$$$
D5_32
  DSViewer          3D                             0

 37 39  0  0  0  0  0  0  0  0999 V2000
    6.0426    1.0446    0.8131 O   0  5
    5.2970   -0.0556    0.4378 C   0  0
    3.8716   -0.1335    0.8274 C   0  0
    3.2889   -1.4087    0.3075 C   0  0
    1.8402   -1.4709    0.7100 C   0  0
    0.8044   -0.9964   -0.0011 N   0  0
   -0.2808   -1.2566    0.7123 C   0  0
   -1.6330   -0.9339    0.3702 C   0  0
   -2.5641   -1.9292    0.1898 C   0  0
   -3.8685   -1.6109   -0.1301 C   0  0
   -4.2835   -0.3132   -0.2788 C   0  0
   -5.6693    0.0062   -0.6097 C   0  0
   -6.7693    0.2431   -0.8756 N   0  0
   -3.3556    0.6911   -0.0998 C   0  0
   -2.0308    0.3764    0.2247 C   0  0
    0.0829   -1.9015    1.8823 C   0  0
   -0.8024   -2.3649    2.9450 C   0  0
   -1.6063   -1.5181    3.6641 C   0  0
   -2.4362   -1.9809    4.6623 C   0  0
   -2.5022   -3.3203    4.9915 C   0  0
   -1.7001   -4.1850    4.2786 C   0  0
   -0.8708   -3.7227    3.2807 C   0  0
    1.3876   -2.0019    1.8207 O   0  0
    5.8010   -0.9942   -0.2276 O   0  0
    3.7455   -0.1469    1.9370 H   0  0
    3.2961    0.7378    0.4258 H   0  0
    3.7771   -2.3054    0.7825 H   0  0
    3.3682   -1.4994   -0.7742 H   0  0
   -2.2697   -2.9843    0.3004 H   0  0
   -4.6201   -2.3970   -0.2765 H   0  0
   -3.6960    1.7086   -0.2210 H   0  0
   -1.3358    1.1772    0.3572 H   0  0
   -1.5500   -0.4583    3.3984 H   0  0
   -3.0475   -1.2823    5.1997 H   0  0
   -3.1625   -3.6815    5.7846 H   0  0
   -1.7377   -5.2521    4.5236 H   0  0
   -0.2445   -4.4077    2.7284 H   0  0
  1  2  1  0  0  0
  2 24  2  0  0  0
  2  3  1  0  0  0
  3  4  1  0  0  0
  4  5  1  0  0  0
  5  6  2  0  0  0
  6  7  1  0  0  0
  7 16  2  0  0  0
  7  8  1  0  0  0
  8  9  2  0  0  0
  9 10  1  0  0  0
 10 11  2  0  0  0
 11 14  1  0  0  0
 11 12  1  0  0  0
 12 13  3  0  0  0
 14 15  2  0  0  0
 15  8  1  0  0  0
 16 23  1  0  0  0
 16 17  1  0  0  0
 17 18  2  0  0  0
 18 19  1  0  0  0
 19 20  2  0  0  0
 20 21  1  0  0  0
 21 22  2  0  0  0
 22 17  1  0  0  0
 23  5  1  0  0  0
  3 25  1  0  0  0
  3 26  1  0  0  0
  4 27  1  0  0  0
  4 28  1  0  0  0
  9 29  1  0  0  0
 10 30  1  0  0  0
 14 31  1  0  0  0
 15 32  1  0  0  0
 18 33  1  0  0  0
 19 34  1  0  0  0
 20 35  1  0  0  0
 21 36  1  0  0  0
 22 37  1  0  0  0
M  CHG  1   1  -1
M  END
> <pIC50>
4.357

$$$$
D1_27
  DSViewer          3D                             0

 42 43  0  0  0  0  0  0  0  0999 V2000
   -0.6570   -3.4380    0.2638 O   0  0
   -0.5224   -2.2148    0.0681 C   0  0
   -1.7347   -1.3905    0.1274 C   0  0
   -1.8615   -0.2955   -0.7365 C   0  0
   -3.0750    0.3704   -0.7725 C   0  0
   -4.1706    0.0324   -0.0112 C   0  0
   -5.7154    0.8691   -0.1224 S   0  0
   -6.3609   -0.0168   -1.7101 F   0  0
   -6.8825    1.0062    1.4503 F   0  0
   -7.3919   -0.4324    0.0560 F   0  0
   -5.5443    2.3519    0.5154 F   0  0
   -6.2803    2.1314   -1.4751 F   0  0
   -4.0200   -1.0124    0.8113 C   0  0
   -2.7988   -1.7292    0.8839 C   0  0
    0.6704   -1.6199   -0.2210 N   0  0
    1.9715   -2.2186   -0.4934 C   0  0
    3.0252   -1.2305   -0.1503 C   0  0
    3.6705   -0.4569   -1.1230 C   0  0
    3.0394   -0.4444   -2.7806 Cl  0  0
    4.7478    0.3173   -0.7508 C   0  0
    5.2515    0.3893    0.5445 C   0  0
    6.2664    1.2626    0.9656 N   0  0
    7.6709    1.5666    0.0617 S   0  0
    8.6884    0.1330   -0.1507 C   0  0
    8.4956    2.6856    0.6530 O   0  0
    7.2507    2.0057   -1.3691 O   0  0
    4.5870   -0.3898    1.4643 C   0  0
    3.5062   -1.1792    1.1376 C   0  0
   -1.0710    0.0283   -1.3489 H   0  0
   -3.2828    1.2418   -1.4202 H   0  0
   -4.8328   -1.3207    1.4411 H   0  0
   -2.7953   -2.5444    1.5753 H   0  0
    0.6811   -0.5142   -0.2864 H   0  0
    2.0916   -2.4907   -1.5742 H   0  0
    2.1491   -3.1294    0.1335 H   0  0
    5.2523    0.9219   -1.5159 H   0  0
    6.1003    1.7362    1.8983 H   0  0
    8.8721   -0.0367   -1.2161 H   0  0
    8.0546   -0.7318    0.2172 H   0  0
    9.6056    0.2457    0.4607 H   0  0
    4.9391   -0.3589    2.5171 H   0  0
    3.0715   -1.7744    1.9666 H   0  0
 28 17  2  0  0  0
 27 28  1  0  0  0
 21 27  2  0  0  0
 23 26  2  0  0  0
 23 25  2  0  0  0
 23 24  1  0  0  0
 22 23  1  0  0  0
 21 22  1  0  0  0
 20 21  1  0  0  0
 18 20  2  0  0  0
 18 19  1  0  0  0
 17 18  1  0  0  0
 16 17  1  0  0  0
 15 16  1  0  0  0
  2 15  1  0  0  0
 14  3  2  0  0  0
 13 14  1  0  0  0
  6 13  2  0  0  0
  7 12  1  0  0  0
  7 11  1  0  0  0
  7 10  1  0  0  0
  7  9  1  0  0  0
  7  8  1  0  0  0
  6  7  1  0  0  0
  5  6  1  0  0  0
  4  5  2  0  0  0
  3  4  1  0  0  0
  2  3  1  0  0  0
  1  2  2  0  0  0
  4 29  1  0  0  0
  5 30  1  0  0  0
 13 31  1  0  0  0
 14 32  1  0  0  0
 15 33  1  0  0  0
 16 34  1  0  0  0
 16 35  1  0  0  0
 20 36  1  0  0  0
 22 37  1  0  0  0
 24 38  1  0  0  0
 24 39  1  0  0  0
 24 40  1  0  0  0
 27 41  1  0  0  0
 28 42  1  0  0  0
M  END
> <pIC50>
8

$$$$
